/*---------------------------------------------------------------------------*\
  =========                 |
  \\      /  F ield         | OpenFOAM: The Open Source CFD Toolbox
   \\    /   O peration     | Website:  https://openfoam.org
    \\  /    A nd           | Version:  7
     \\/     M anipulation  |
\*---------------------------------------------------------------------------*/
Build  : 7-1ff648926f77
Exec   : pisoFoam
Date   : Jul 20 2020
Time   : 14:40:20
Host   : "Lucifer"
PID    : 15514
I/O    : uncollated
Case   : /media/shyam/Vault/Studies/OpenFOAM/kEqn/C41
nProcs : 1
sigFpe : Enabling floating point exception trapping (FOAM_SIGFPE).
fileModificationChecking : Monitoring run-time modified files using timeStampMaster (fileModificationSkew 10)
allowSystemOperations : Allowing user-supplied system call operations

// * * * * * * * * * * * * * * * * * * * * * * * * * * * * * * * * * * * * * //
Create time

Create mesh for time = 0.5

Reading field p

Reading field U

Reading/calculating face flux field phi

Selecting incompressible transport model Newtonian
Selecting turbulence model type LES
Selecting LES turbulence model dynamicKEqn
Selecting LES delta type cubeRootVol
--> FOAM Warning : 
    From function void Foam::LESModels::cubeRootVolDelta::calcDelta()
    in file LES/LESdeltas/cubeRootVolDelta/cubeRootVolDelta.C at line 55
    Case is 2D, LES is not strictly applicable

bounding k, min: 0 max: 0.00132802 average: 3.2164e-05
dynamicKEqnCoeffs
{
    filter          simple;
    Ce              1.048;
}

No MRF models present

No finite volume options present

Starting time loop

wallShearStress wallShearStress:
    processing all wall patches

Reading surface description:
    nearWall

Time = 0.50001

Courant Number mean: 0.0822272 max: 0.432623
smoothSolver:  Solving for Ux, Initial residual = 9.96822e-05, Final residual = 2.38873e-06, No Iterations 1
smoothSolver:  Solving for Uy, Initial residual = 0.000979909, Final residual = 8.35609e-07, No Iterations 2
GAMG:  Solving for p, Initial residual = 0.0457263, Final residual = 0.00211271, No Iterations 2
time step continuity errors : sum local = 8.21381e-09, global = 2.49769e-11, cumulative = 2.49769e-11
GAMG:  Solving for p, Initial residual = 0.00268052, Final residual = 5.25379e-07, No Iterations 8
time step continuity errors : sum local = 2.10896e-12, global = 2.00884e-13, cumulative = 2.51778e-11
smoothSolver:  Solving for k, Initial residual = 0.000985724, Final residual = 7.88869e-07, No Iterations 2
bounding k, min: 0 max: 0.00132528 average: 3.21638e-05
ExecutionTime = 1.34 s  ClockTime = 1 s

Time = 0.50002

Courant Number mean: 0.0822286 max: 0.43619
smoothSolver:  Solving for Ux, Initial residual = 9.99443e-05, Final residual = 2.39396e-06, No Iterations 1
smoothSolver:  Solving for Uy, Initial residual = 0.000981182, Final residual = 8.369e-07, No Iterations 2
GAMG:  Solving for p, Initial residual = 0.0540109, Final residual = 0.00218008, No Iterations 2
time step continuity errors : sum local = 8.54863e-09, global = 2.86127e-11, cumulative = 5.37905e-11
GAMG:  Solving for p, Initial residual = 0.00295945, Final residual = 6.82694e-07, No Iterations 9
time step continuity errors : sum local = 2.61719e-12, global = -9.05987e-13, cumulative = 5.28845e-11
smoothSolver:  Solving for k, Initial residual = 0.00098607, Final residual = 7.85372e-07, No Iterations 2
bounding k, min: 0 max: 0.00132205 average: 3.21636e-05
ExecutionTime = 1.67 s  ClockTime = 2 s

Time = 0.50003

Courant Number mean: 0.08223 max: 0.439705
smoothSolver:  Solving for Ux, Initial residual = 9.97581e-05, Final residual = 2.39155e-06, No Iterations 1
smoothSolver:  Solving for Uy, Initial residual = 0.000981021, Final residual = 8.37355e-07, No Iterations 2
GAMG:  Solving for p, Initial residual = 0.0190629, Final residual = 0.00173544, No Iterations 2
time step continuity errors : sum local = 6.60038e-09, global = 2.94823e-11, cumulative = 8.23668e-11
GAMG:  Solving for p, Initial residual = 0.00217002, Final residual = 5.09179e-07, No Iterations 8
time step continuity errors : sum local = 1.92449e-12, global = -5.49043e-13, cumulative = 8.18178e-11
smoothSolver:  Solving for k, Initial residual = 0.00098606, Final residual = 7.86248e-07, No Iterations 2
bounding k, min: 0 max: 0.0013223 average: 3.21633e-05
ExecutionTime = 1.98 s  ClockTime = 2 s

Time = 0.50004

Courant Number mean: 0.0822314 max: 0.443166
smoothSolver:  Solving for Ux, Initial residual = 9.97903e-05, Final residual = 2.39334e-06, No Iterations 1
smoothSolver:  Solving for Uy, Initial residual = 0.000981493, Final residual = 8.37931e-07, No Iterations 2
GAMG:  Solving for p, Initial residual = 0.0101148, Final residual = 0.000749935, No Iterations 3
time step continuity errors : sum local = 2.83229e-09, global = -5.17066e-11, cumulative = 3.01112e-11
GAMG:  Solving for p, Initial residual = 0.00134698, Final residual = 8.69369e-07, No Iterations 7
time step continuity errors : sum local = 3.28508e-12, global = 4.51711e-13, cumulative = 3.05629e-11
smoothSolver:  Solving for k, Initial residual = 0.00098593, Final residual = 7.83724e-07, No Iterations 2
bounding k, min: 0 max: 0.00132533 average: 3.21631e-05
ExecutionTime = 2.28 s  ClockTime = 2 s

Time = 0.50005

Courant Number mean: 0.0822327 max: 0.446573
smoothSolver:  Solving for Ux, Initial residual = 9.98333e-05, Final residual = 2.39548e-06, No Iterations 1
smoothSolver:  Solving for Uy, Initial residual = 0.000981915, Final residual = 8.38264e-07, No Iterations 2
GAMG:  Solving for p, Initial residual = 0.010352, Final residual = 0.000763509, No Iterations 3
time step continuity errors : sum local = 2.88371e-09, global = -5.42901e-11, cumulative = -2.37271e-11
GAMG:  Solving for p, Initial residual = 0.00136742, Final residual = 8.71757e-07, No Iterations 7
time step continuity errors : sum local = 3.29504e-12, global = -3.32542e-13, cumulative = -2.40597e-11
smoothSolver:  Solving for k, Initial residual = 0.000985761, Final residual = 7.84996e-07, No Iterations 2
bounding k, min: 0 max: 0.00132819 average: 3.2163e-05
ExecutionTime = 2.59 s  ClockTime = 3 s

Time = 0.50006

Courant Number mean: 0.082234 max: 0.449925
smoothSolver:  Solving for Ux, Initial residual = 9.98728e-05, Final residual = 2.39801e-06, No Iterations 1
smoothSolver:  Solving for Uy, Initial residual = 0.000982108, Final residual = 8.38202e-07, No Iterations 2
GAMG:  Solving for p, Initial residual = 0.0109571, Final residual = 0.000803027, No Iterations 3
time step continuity errors : sum local = 3.03202e-09, global = -5.07907e-11, cumulative = -7.48504e-11
GAMG:  Solving for p, Initial residual = 0.00140769, Final residual = 8.41611e-07, No Iterations 7
time step continuity errors : sum local = 3.17984e-12, global = 4.61462e-13, cumulative = -7.43889e-11
smoothSolver:  Solving for k, Initial residual = 0.000985576, Final residual = 7.8515e-07, No Iterations 2
bounding k, min: 0 max: 0.00133088 average: 3.21629e-05
ExecutionTime = 2.9 s  ClockTime = 3 s

Time = 0.50007

Courant Number mean: 0.0822352 max: 0.453223
smoothSolver:  Solving for Ux, Initial residual = 9.99253e-05, Final residual = 2.40087e-06, No Iterations 1
smoothSolver:  Solving for Uy, Initial residual = 0.000982047, Final residual = 8.37743e-07, No Iterations 2
GAMG:  Solving for p, Initial residual = 0.0108361, Final residual = 0.000789906, No Iterations 3
time step continuity errors : sum local = 2.98153e-09, global = -4.91456e-11, cumulative = -1.23535e-10
GAMG:  Solving for p, Initial residual = 0.00140551, Final residual = 8.42495e-07, No Iterations 7
time step continuity errors : sum local = 3.18024e-12, global = 4.45138e-13, cumulative = -1.23089e-10
smoothSolver:  Solving for k, Initial residual = 0.000985477, Final residual = 7.85102e-07, No Iterations 2
bounding k, min: 0 max: 0.00133341 average: 3.21629e-05
ExecutionTime = 3.2 s  ClockTime = 3 s

Time = 0.50008

Courant Number mean: 0.0822363 max: 0.456464
smoothSolver:  Solving for Ux, Initial residual = 9.99758e-05, Final residual = 2.40302e-06, No Iterations 1
smoothSolver:  Solving for Uy, Initial residual = 0.000981819, Final residual = 8.39022e-07, No Iterations 2
GAMG:  Solving for p, Initial residual = 0.0096284, Final residual = 0.000745322, No Iterations 3
time step continuity errors : sum local = 2.81128e-09, global = -4.77758e-11, cumulative = -1.70865e-10
GAMG:  Solving for p, Initial residual = 0.00133285, Final residual = 9.34334e-07, No Iterations 7
time step continuity errors : sum local = 3.52536e-12, global = 4.85947e-13, cumulative = -1.70379e-10
smoothSolver:  Solving for k, Initial residual = 0.000985448, Final residual = 7.85138e-07, No Iterations 2
bounding k, min: 0 max: 0.00133577 average: 3.21629e-05
ExecutionTime = 3.53 s  ClockTime = 4 s

Time = 0.50009

Courant Number mean: 0.0822375 max: 0.459646
smoothSolver:  Solving for Ux, Initial residual = 0.000100027, Final residual = 2.4046e-06, No Iterations 1
smoothSolver:  Solving for Uy, Initial residual = 0.000981489, Final residual = 8.40451e-07, No Iterations 2
GAMG:  Solving for p, Initial residual = 0.0100735, Final residual = 0.000783139, No Iterations 3
time step continuity errors : sum local = 2.954e-09, global = -4.50471e-11, cumulative = -2.15426e-10
GAMG:  Solving for p, Initial residual = 0.00137041, Final residual = 9.91736e-07, No Iterations 7
time step continuity errors : sum local = 3.74414e-12, global = 5.26793e-13, cumulative = -2.149e-10
smoothSolver:  Solving for k, Initial residual = 0.000985238, Final residual = 7.87595e-07, No Iterations 2
bounding k, min: 0 max: 0.00133795 average: 3.21629e-05
ExecutionTime = 3.84 s  ClockTime = 4 s

Time = 0.5001

Courant Number mean: 0.0822385 max: 0.462771
smoothSolver:  Solving for Ux, Initial residual = 0.000100076, Final residual = 2.40631e-06, No Iterations 1
smoothSolver:  Solving for Uy, Initial residual = 0.000980976, Final residual = 8.41375e-07, No Iterations 2
GAMG:  Solving for p, Initial residual = 0.0103311, Final residual = 0.000831109, No Iterations 3
time step continuity errors : sum local = 3.13443e-09, global = -4.95514e-11, cumulative = -2.64451e-10
GAMG:  Solving for p, Initial residual = 0.00142306, Final residual = 8.96923e-07, No Iterations 7
time step continuity errors : sum local = 3.38265e-12, global = 4.67332e-13, cumulative = -2.63984e-10
smoothSolver:  Solving for k, Initial residual = 0.000984884, Final residual = 7.87485e-07, No Iterations 2
bounding k, min: 0 max: 0.00133995 average: 3.2163e-05
ExecutionTime = 4.15 s  ClockTime = 4 s

Time = 0.50011

Courant Number mean: 0.0822396 max: 0.465837
smoothSolver:  Solving for Ux, Initial residual = 0.000100115, Final residual = 2.40754e-06, No Iterations 1
smoothSolver:  Solving for Uy, Initial residual = 0.000981017, Final residual = 8.42169e-07, No Iterations 2
GAMG:  Solving for p, Initial residual = 0.00977099, Final residual = 0.000773247, No Iterations 3
time step continuity errors : sum local = 2.91467e-09, global = -4.59913e-11, cumulative = -3.09975e-10
GAMG:  Solving for p, Initial residual = 0.00135313, Final residual = 9.49446e-07, No Iterations 7
time step continuity errors : sum local = 3.58089e-12, global = 4.95489e-13, cumulative = -3.0948e-10
smoothSolver:  Solving for k, Initial residual = 0.000984576, Final residual = 7.90015e-07, No Iterations 2
bounding k, min: 0 max: 0.00134177 average: 3.21632e-05
ExecutionTime = 4.46 s  ClockTime = 5 s

Time = 0.50012

Courant Number mean: 0.0822406 max: 0.468843
smoothSolver:  Solving for Ux, Initial residual = 0.000100155, Final residual = 2.40856e-06, No Iterations 1
smoothSolver:  Solving for Uy, Initial residual = 0.000981198, Final residual = 8.43186e-07, No Iterations 2
GAMG:  Solving for p, Initial residual = 0.0101523, Final residual = 0.000792263, No Iterations 3
time step continuity errors : sum local = 2.98551e-09, global = -4.70845e-11, cumulative = -3.56564e-10
GAMG:  Solving for p, Initial residual = 0.00136578, Final residual = 8.55407e-07, No Iterations 7
time step continuity errors : sum local = 3.22424e-12, global = 3.95341e-13, cumulative = -3.56169e-10
smoothSolver:  Solving for k, Initial residual = 0.000984268, Final residual = 7.86566e-07, No Iterations 2
bounding k, min: 0 max: 0.0013434 average: 3.21634e-05
ExecutionTime = 4.77 s  ClockTime = 5 s

Time = 0.50013

Courant Number mean: 0.0822419 max: 0.47179
smoothSolver:  Solving for Ux, Initial residual = 0.000100193, Final residual = 2.41023e-06, No Iterations 1
smoothSolver:  Solving for Uy, Initial residual = 0.00098148, Final residual = 8.44631e-07, No Iterations 2
GAMG:  Solving for p, Initial residual = 0.00968086, Final residual = 0.000784211, No Iterations 3
time step continuity errors : sum local = 2.95306e-09, global = -4.57717e-11, cumulative = -4.0194e-10
GAMG:  Solving for p, Initial residual = 0.00135797, Final residual = 8.8157e-07, No Iterations 7
time step continuity errors : sum local = 3.32107e-12, global = 4.07132e-13, cumulative = -4.01533e-10
smoothSolver:  Solving for k, Initial residual = 0.000983901, Final residual = 7.8289e-07, No Iterations 2
bounding k, min: 0 max: 0.00134483 average: 3.21636e-05
ExecutionTime = 5.06 s  ClockTime = 5 s

Time = 0.50014

Courant Number mean: 0.0822434 max: 0.474675
smoothSolver:  Solving for Ux, Initial residual = 0.00010024, Final residual = 2.41206e-06, No Iterations 1
smoothSolver:  Solving for Uy, Initial residual = 0.000981738, Final residual = 8.45901e-07, No Iterations 2
GAMG:  Solving for p, Initial residual = 0.0104297, Final residual = 0.000759929, No Iterations 3
time step continuity errors : sum local = 2.86006e-09, global = -4.37872e-11, cumulative = -4.45321e-10
GAMG:  Solving for p, Initial residual = 0.0013527, Final residual = 8.91733e-07, No Iterations 7
time step continuity errors : sum local = 3.35739e-12, global = 4.47207e-13, cumulative = -4.44873e-10
smoothSolver:  Solving for k, Initial residual = 0.000983518, Final residual = 7.84742e-07, No Iterations 2
bounding k, min: 0 max: 0.00134604 average: 3.21639e-05
ExecutionTime = 5.38 s  ClockTime = 6 s

Time = 0.50015

Courant Number mean: 0.082245 max: 0.477498
smoothSolver:  Solving for Ux, Initial residual = 0.000100287, Final residual = 2.41412e-06, No Iterations 1
smoothSolver:  Solving for Uy, Initial residual = 0.000982143, Final residual = 8.46728e-07, No Iterations 2
GAMG:  Solving for p, Initial residual = 0.0101571, Final residual = 0.000747129, No Iterations 3
time step continuity errors : sum local = 2.81019e-09, global = -4.279e-11, cumulative = -4.87663e-10
GAMG:  Solving for p, Initial residual = 0.00134114, Final residual = 9.33892e-07, No Iterations 7
time step continuity errors : sum local = 3.51321e-12, global = 4.89996e-13, cumulative = -4.87173e-10
smoothSolver:  Solving for k, Initial residual = 0.000983121, Final residual = 7.83139e-07, No Iterations 2
bounding k, min: 0 max: 0.00134705 average: 3.21642e-05
ExecutionTime = 5.69 s  ClockTime = 6 s

Time = 0.50016

Courant Number mean: 0.0822465 max: 0.480259
smoothSolver:  Solving for Ux, Initial residual = 0.000100341, Final residual = 2.41668e-06, No Iterations 1
smoothSolver:  Solving for Uy, Initial residual = 0.000982652, Final residual = 8.47223e-07, No Iterations 2
GAMG:  Solving for p, Initial residual = 0.00923892, Final residual = 0.000772376, No Iterations 3
time step continuity errors : sum local = 2.90342e-09, global = -4.09394e-11, cumulative = -5.28113e-10
GAMG:  Solving for p, Initial residual = 0.00133685, Final residual = 9.63067e-07, No Iterations 7
time step continuity errors : sum local = 3.62141e-12, global = 5.02857e-13, cumulative = -5.2761e-10
smoothSolver:  Solving for k, Initial residual = 0.000982655, Final residual = 7.84655e-07, No Iterations 2
bounding k, min: 0 max: 0.00134783 average: 3.21646e-05
ExecutionTime = 6 s  ClockTime = 6 s

Time = 0.50017

Courant Number mean: 0.0822479 max: 0.482959
smoothSolver:  Solving for Ux, Initial residual = 0.000100403, Final residual = 2.4193e-06, No Iterations 1
smoothSolver:  Solving for Uy, Initial residual = 0.000982954, Final residual = 8.47007e-07, No Iterations 2
GAMG:  Solving for p, Initial residual = 0.00953782, Final residual = 0.000783435, No Iterations 3
time step continuity errors : sum local = 2.94395e-09, global = -3.90545e-11, cumulative = -5.66664e-10
GAMG:  Solving for p, Initial residual = 0.00134779, Final residual = 9.56625e-07, No Iterations 7
time step continuity errors : sum local = 3.59595e-12, global = 4.98386e-13, cumulative = -5.66166e-10
smoothSolver:  Solving for k, Initial residual = 0.000982224, Final residual = 7.84102e-07, No Iterations 2
bounding k, min: 0 max: 0.0013483 average: 3.21651e-05
ExecutionTime = 6.3 s  ClockTime = 6 s

Time = 0.50018

Courant Number mean: 0.0822493 max: 0.485597
smoothSolver:  Solving for Ux, Initial residual = 0.000100457, Final residual = 2.42158e-06, No Iterations 1
smoothSolver:  Solving for Uy, Initial residual = 0.000983201, Final residual = 8.46311e-07, No Iterations 2
GAMG:  Solving for p, Initial residual = 0.00964251, Final residual = 0.000776032, No Iterations 3
time step continuity errors : sum local = 2.91534e-09, global = -4.29401e-11, cumulative = -6.09106e-10
GAMG:  Solving for p, Initial residual = 0.00134222, Final residual = 9.29575e-07, No Iterations 7
time step continuity errors : sum local = 3.49337e-12, global = 4.76053e-13, cumulative = -6.0863e-10
smoothSolver:  Solving for k, Initial residual = 0.000982087, Final residual = 7.83734e-07, No Iterations 2
bounding k, min: 0 max: 0.00134845 average: 3.21655e-05
ExecutionTime = 6.62 s  ClockTime = 7 s

Time = 0.50019

Courant Number mean: 0.0822505 max: 0.488174
smoothSolver:  Solving for Ux, Initial residual = 0.000100518, Final residual = 2.42384e-06, No Iterations 1
smoothSolver:  Solving for Uy, Initial residual = 0.000983235, Final residual = 8.46721e-07, No Iterations 2
GAMG:  Solving for p, Initial residual = 0.00925333, Final residual = 0.000756624, No Iterations 3
time step continuity errors : sum local = 2.84089e-09, global = -3.78531e-11, cumulative = -6.46483e-10
GAMG:  Solving for p, Initial residual = 0.00131354, Final residual = 9.54407e-07, No Iterations 7
time step continuity errors : sum local = 3.58413e-12, global = 5.13903e-13, cumulative = -6.45969e-10
smoothSolver:  Solving for k, Initial residual = 0.000981996, Final residual = 7.84184e-07, No Iterations 2
bounding k, min: 0 max: 0.00134823 average: 3.2166e-05
ExecutionTime = 6.93 s  ClockTime = 7 s

Time = 0.5002

Courant Number mean: 0.0822516 max: 0.490688
smoothSolver:  Solving for Ux, Initial residual = 0.000100568, Final residual = 2.42569e-06, No Iterations 1
smoothSolver:  Solving for Uy, Initial residual = 0.000983134, Final residual = 8.47498e-07, No Iterations 2
GAMG:  Solving for p, Initial residual = 0.00941491, Final residual = 0.000754286, No Iterations 3
time step continuity errors : sum local = 2.83071e-09, global = -3.90882e-11, cumulative = -6.85057e-10
GAMG:  Solving for p, Initial residual = 0.00131317, Final residual = 8.11349e-07, No Iterations 7
time step continuity errors : sum local = 3.04563e-12, global = 3.64855e-13, cumulative = -6.84693e-10
smoothSolver:  Solving for k, Initial residual = 0.000981897, Final residual = 7.83068e-07, No Iterations 2
bounding k, min: 0 max: 0.0013476 average: 3.21666e-05
ExecutionTime = 7.24 s  ClockTime = 7 s

Time = 0.50021

Courant Number mean: 0.0822526 max: 0.49314
smoothSolver:  Solving for Ux, Initial residual = 0.000100624, Final residual = 2.42767e-06, No Iterations 1
smoothSolver:  Solving for Uy, Initial residual = 0.000982955, Final residual = 8.48201e-07, No Iterations 2
GAMG:  Solving for p, Initial residual = 0.00943841, Final residual = 0.000748472, No Iterations 3
time step continuity errors : sum local = 2.80669e-09, global = -3.76495e-11, cumulative = -7.22342e-10
GAMG:  Solving for p, Initial residual = 0.00131025, Final residual = 9.43392e-07, No Iterations 7
time step continuity errors : sum local = 3.53841e-12, global = 4.8901e-13, cumulative = -7.21853e-10
smoothSolver:  Solving for k, Initial residual = 0.000981683, Final residual = 7.8289e-07, No Iterations 2
bounding k, min: 0 max: 0.00134657 average: 3.21672e-05
ExecutionTime = 7.55 s  ClockTime = 8 s

Time = 0.50022

Courant Number mean: 0.0822535 max: 0.49553
smoothSolver:  Solving for Ux, Initial residual = 0.000100681, Final residual = 2.4294e-06, No Iterations 1
smoothSolver:  Solving for Uy, Initial residual = 0.000983051, Final residual = 8.48711e-07, No Iterations 2
GAMG:  Solving for p, Initial residual = 0.00948253, Final residual = 0.000748857, No Iterations 3
time step continuity errors : sum local = 2.80673e-09, global = -3.79464e-11, cumulative = -7.59799e-10
GAMG:  Solving for p, Initial residual = 0.00130882, Final residual = 9.36281e-07, No Iterations 7
time step continuity errors : sum local = 3.50973e-12, global = 4.8991e-13, cumulative = -7.5931e-10
smoothSolver:  Solving for k, Initial residual = 0.000981542, Final residual = 7.83769e-07, No Iterations 2
bounding k, min: 0 max: 0.00134511 average: 3.21678e-05
ExecutionTime = 7.86 s  ClockTime = 8 s

Time = 0.50023

Courant Number mean: 0.0822542 max: 0.497857
smoothSolver:  Solving for Ux, Initial residual = 0.000100751, Final residual = 2.43091e-06, No Iterations 1
smoothSolver:  Solving for Uy, Initial residual = 0.000983293, Final residual = 8.49064e-07, No Iterations 2
GAMG:  Solving for p, Initial residual = 0.0102228, Final residual = 0.000743348, No Iterations 3
time step continuity errors : sum local = 2.78511e-09, global = -3.84661e-11, cumulative = -7.97776e-10
GAMG:  Solving for p, Initial residual = 0.00131254, Final residual = 9.14464e-07, No Iterations 7
time step continuity errors : sum local = 3.42753e-12, global = 4.86839e-13, cumulative = -7.97289e-10
smoothSolver:  Solving for k, Initial residual = 0.000981397, Final residual = 7.78795e-07, No Iterations 2
bounding k, min: 0 max: 0.00134322 average: 3.21685e-05
ExecutionTime = 8.17 s  ClockTime = 8 s

Time = 0.50024

Courant Number mean: 0.0822549 max: 0.500123
smoothSolver:  Solving for Ux, Initial residual = 0.000100797, Final residual = 2.43229e-06, No Iterations 1
smoothSolver:  Solving for Uy, Initial residual = 0.000983546, Final residual = 8.49454e-07, No Iterations 2
GAMG:  Solving for p, Initial residual = 0.00991168, Final residual = 0.000788386, No Iterations 3
time step continuity errors : sum local = 2.9532e-09, global = -3.92434e-11, cumulative = -8.36532e-10
GAMG:  Solving for p, Initial residual = 0.00134317, Final residual = 7.80946e-07, No Iterations 7
time step continuity errors : sum local = 2.9259e-12, global = 3.11078e-13, cumulative = -8.36221e-10
smoothSolver:  Solving for k, Initial residual = 0.000981223, Final residual = 7.82891e-07, No Iterations 2
bounding k, min: 0 max: 0.00134092 average: 3.21692e-05
ExecutionTime = 8.47 s  ClockTime = 9 s

Time = 0.50025

Courant Number mean: 0.0822556 max: 0.502327
smoothSolver:  Solving for Ux, Initial residual = 0.000100837, Final residual = 2.43397e-06, No Iterations 1
smoothSolver:  Solving for Uy, Initial residual = 0.000984059, Final residual = 8.51732e-07, No Iterations 2
GAMG:  Solving for p, Initial residual = 0.0100836, Final residual = 0.000765531, No Iterations 3
time step continuity errors : sum local = 2.86611e-09, global = -3.86668e-11, cumulative = -8.74888e-10
GAMG:  Solving for p, Initial residual = 0.00133217, Final residual = 8.64215e-07, No Iterations 7
time step continuity errors : sum local = 3.2377e-12, global = 4.4121e-13, cumulative = -8.74447e-10
smoothSolver:  Solving for k, Initial residual = 0.000981013, Final residual = 7.85043e-07, No Iterations 2
bounding k, min: 0 max: 0.00133818 average: 3.217e-05
ExecutionTime = 8.78 s  ClockTime = 9 s

Time = 0.50026

Courant Number mean: 0.082257 max: 0.50447
smoothSolver:  Solving for Ux, Initial residual = 0.000100888, Final residual = 2.43591e-06, No Iterations 1
smoothSolver:  Solving for Uy, Initial residual = 0.000984484, Final residual = 8.53429e-07, No Iterations 2
GAMG:  Solving for p, Initial residual = 0.0101797, Final residual = 0.000746793, No Iterations 3
time step continuity errors : sum local = 2.79607e-09, global = -4.02828e-11, cumulative = -9.1473e-10
GAMG:  Solving for p, Initial residual = 0.00132587, Final residual = 8.58738e-07, No Iterations 7
time step continuity errors : sum local = 3.21696e-12, global = 4.38169e-13, cumulative = -9.14291e-10
smoothSolver:  Solving for k, Initial residual = 0.000980816, Final residual = 7.81496e-07, No Iterations 2
bounding k, min: 0 max: 0.00133623 average: 3.21707e-05
ExecutionTime = 9.09 s  ClockTime = 9 s

Time = 0.50027

Courant Number mean: 0.0822587 max: 0.506551
smoothSolver:  Solving for Ux, Initial residual = 0.00010095, Final residual = 2.43787e-06, No Iterations 1
smoothSolver:  Solving for Uy, Initial residual = 0.000984728, Final residual = 8.54526e-07, No Iterations 2
GAMG:  Solving for p, Initial residual = 0.00982358, Final residual = 0.000751707, No Iterations 3
time step continuity errors : sum local = 2.81441e-09, global = -3.66459e-11, cumulative = -9.50937e-10
GAMG:  Solving for p, Initial residual = 0.00131381, Final residual = 8.9187e-07, No Iterations 7
time step continuity errors : sum local = 3.34044e-12, global = 4.51262e-13, cumulative = -9.50486e-10
smoothSolver:  Solving for k, Initial residual = 0.000980516, Final residual = 7.8118e-07, No Iterations 2
bounding k, min: 0 max: 0.00133909 average: 3.21716e-05
ExecutionTime = 9.4 s  ClockTime = 10 s

Time = 0.50028

Courant Number mean: 0.0822603 max: 0.508572
smoothSolver:  Solving for Ux, Initial residual = 0.000101013, Final residual = 2.44016e-06, No Iterations 1
smoothSolver:  Solving for Uy, Initial residual = 0.000984882, Final residual = 8.54731e-07, No Iterations 2
GAMG:  Solving for p, Initial residual = 0.00931753, Final residual = 0.000727794, No Iterations 3
time step continuity errors : sum local = 2.72522e-09, global = -3.54831e-11, cumulative = -9.85969e-10
GAMG:  Solving for p, Initial residual = 0.00128109, Final residual = 8.56246e-07, No Iterations 7
time step continuity errors : sum local = 3.20829e-12, global = 4.52854e-13, cumulative = -9.85516e-10
smoothSolver:  Solving for k, Initial residual = 0.000979981, Final residual = 7.78559e-07, No Iterations 2
bounding k, min: 0 max: 0.00134179 average: 3.21724e-05
ExecutionTime = 9.7 s  ClockTime = 10 s

Time = 0.50029

Courant Number mean: 0.0822618 max: 0.510532
smoothSolver:  Solving for Ux, Initial residual = 0.000101086, Final residual = 2.44302e-06, No Iterations 1
smoothSolver:  Solving for Uy, Initial residual = 0.000985132, Final residual = 8.5442e-07, No Iterations 2
GAMG:  Solving for p, Initial residual = 0.0093214, Final residual = 0.000729688, No Iterations 3
time step continuity errors : sum local = 2.73329e-09, global = -3.55568e-11, cumulative = -1.02107e-09
GAMG:  Solving for p, Initial residual = 0.00128076, Final residual = 8.58629e-07, No Iterations 7
time step continuity errors : sum local = 3.21784e-12, global = 4.34372e-13, cumulative = -1.02064e-09
smoothSolver:  Solving for k, Initial residual = 0.000979544, Final residual = 7.79287e-07, No Iterations 2
bounding k, min: 0 max: 0.00134436 average: 3.21733e-05
ExecutionTime = 10.02 s  ClockTime = 10 s

Time = 0.5003

Courant Number mean: 0.0822631 max: 0.512432
smoothSolver:  Solving for Ux, Initial residual = 0.000101159, Final residual = 2.44549e-06, No Iterations 1
smoothSolver:  Solving for Uy, Initial residual = 0.000985337, Final residual = 8.54656e-07, No Iterations 2
GAMG:  Solving for p, Initial residual = 0.00976858, Final residual = 0.000752711, No Iterations 3
time step continuity errors : sum local = 2.81995e-09, global = -3.88754e-11, cumulative = -1.05951e-09
GAMG:  Solving for p, Initial residual = 0.00130992, Final residual = 8.08768e-07, No Iterations 7
time step continuity errors : sum local = 3.03202e-12, global = 4.03749e-13, cumulative = -1.05911e-09
smoothSolver:  Solving for k, Initial residual = 0.000979277, Final residual = 7.78574e-07, No Iterations 2
bounding k, min: 0 max: 0.00134681 average: 3.21743e-05
ExecutionTime = 10.32 s  ClockTime = 10 s

Time = 0.50031

Courant Number mean: 0.0822643 max: 0.514273
smoothSolver:  Solving for Ux, Initial residual = 0.000101234, Final residual = 2.44801e-06, No Iterations 1
smoothSolver:  Solving for Uy, Initial residual = 0.000985451, Final residual = 8.55167e-07, No Iterations 2
GAMG:  Solving for p, Initial residual = 0.0102229, Final residual = 0.000792306, No Iterations 3
time step continuity errors : sum local = 2.96742e-09, global = -3.43278e-11, cumulative = -1.09344e-09
GAMG:  Solving for p, Initial residual = 0.00133585, Final residual = 6.58781e-07, No Iterations 7
time step continuity errors : sum local = 2.46776e-12, global = 3.82956e-13, cumulative = -1.09306e-09
smoothSolver:  Solving for k, Initial residual = 0.000979111, Final residual = 7.78567e-07, No Iterations 2
bounding k, min: 0 max: 0.00134913 average: 3.21753e-05
ExecutionTime = 10.62 s  ClockTime = 11 s

Time = 0.50032

Courant Number mean: 0.0822654 max: 0.516055
smoothSolver:  Solving for Ux, Initial residual = 0.000101279, Final residual = 2.45e-06, No Iterations 1
smoothSolver:  Solving for Uy, Initial residual = 0.000985435, Final residual = 8.55639e-07, No Iterations 2
GAMG:  Solving for p, Initial residual = 0.00961606, Final residual = 0.00076654, No Iterations 3
time step continuity errors : sum local = 2.87121e-09, global = -3.44155e-11, cumulative = -1.12747e-09
GAMG:  Solving for p, Initial residual = 0.00130451, Final residual = 7.14844e-07, No Iterations 7
time step continuity errors : sum local = 2.67874e-12, global = 4.0656e-13, cumulative = -1.12706e-09
smoothSolver:  Solving for k, Initial residual = 0.000978917, Final residual = 7.78999e-07, No Iterations 2
bounding k, min: 0 max: 0.00135132 average: 3.21763e-05
ExecutionTime = 10.94 s  ClockTime = 11 s

Time = 0.50033

Courant Number mean: 0.0822665 max: 0.51778
smoothSolver:  Solving for Ux, Initial residual = 0.000101338, Final residual = 2.45204e-06, No Iterations 1
smoothSolver:  Solving for Uy, Initial residual = 0.000985749, Final residual = 8.55899e-07, No Iterations 2
GAMG:  Solving for p, Initial residual = 0.00942036, Final residual = 0.000765839, No Iterations 3
time step continuity errors : sum local = 2.86957e-09, global = -3.60331e-11, cumulative = -1.1631e-09
GAMG:  Solving for p, Initial residual = 0.00130009, Final residual = 8.52968e-07, No Iterations 7
time step continuity errors : sum local = 3.19783e-12, global = 4.35563e-13, cumulative = -1.16266e-09
smoothSolver:  Solving for k, Initial residual = 0.000978635, Final residual = 7.75742e-07, No Iterations 2
bounding k, min: 0 max: 0.00135336 average: 3.21774e-05
ExecutionTime = 11.26 s  ClockTime = 11 s

Time = 0.50034

Courant Number mean: 0.0822674 max: 0.519447
smoothSolver:  Solving for Ux, Initial residual = 0.000101393, Final residual = 2.45405e-06, No Iterations 1
smoothSolver:  Solving for Uy, Initial residual = 0.000986145, Final residual = 8.55925e-07, No Iterations 2
GAMG:  Solving for p, Initial residual = 0.00966988, Final residual = 0.000732506, No Iterations 3
time step continuity errors : sum local = 2.74486e-09, global = -3.76941e-11, cumulative = -1.20036e-09
GAMG:  Solving for p, Initial residual = 0.00128742, Final residual = 7.55385e-07, No Iterations 7
time step continuity errors : sum local = 2.83205e-12, global = 3.68565e-13, cumulative = -1.19999e-09
smoothSolver:  Solving for k, Initial residual = 0.000978295, Final residual = 7.76038e-07, No Iterations 2
bounding k, min: 0 max: 0.00135526 average: 3.21785e-05
ExecutionTime = 11.58 s  ClockTime = 12 s

Time = 0.50035

Courant Number mean: 0.0822682 max: 0.521056
smoothSolver:  Solving for Ux, Initial residual = 0.000101457, Final residual = 2.45664e-06, No Iterations 1
smoothSolver:  Solving for Uy, Initial residual = 0.000986723, Final residual = 8.55676e-07, No Iterations 2
GAMG:  Solving for p, Initial residual = 0.0100781, Final residual = 0.000735541, No Iterations 3
time step continuity errors : sum local = 2.75584e-09, global = -3.70792e-11, cumulative = -1.23707e-09
GAMG:  Solving for p, Initial residual = 0.00130093, Final residual = 7.54616e-07, No Iterations 7
time step continuity errors : sum local = 2.82858e-12, global = 4.06722e-13, cumulative = -1.23666e-09
smoothSolver:  Solving for k, Initial residual = 0.000977932, Final residual = 7.75942e-07, No Iterations 2
bounding k, min: 0 max: 0.00135702 average: 3.21797e-05
ExecutionTime = 11.89 s  ClockTime = 12 s

Time = 0.50036

Courant Number mean: 0.0822689 max: 0.52261
smoothSolver:  Solving for Ux, Initial residual = 0.000101512, Final residual = 2.45879e-06, No Iterations 1
smoothSolver:  Solving for Uy, Initial residual = 0.000987306, Final residual = 8.55759e-07, No Iterations 2
GAMG:  Solving for p, Initial residual = 0.00954154, Final residual = 0.00071977, No Iterations 3
time step continuity errors : sum local = 2.69695e-09, global = -3.80315e-11, cumulative = -1.27469e-09
GAMG:  Solving for p, Initial residual = 0.00126916, Final residual = 7.96078e-07, No Iterations 7
time step continuity errors : sum local = 2.98399e-12, global = 4.04838e-13, cumulative = -1.27429e-09
smoothSolver:  Solving for k, Initial residual = 0.000977502, Final residual = 7.74462e-07, No Iterations 2
bounding k, min: 0 max: 0.00135863 average: 3.21809e-05
ExecutionTime = 12.2 s  ClockTime = 12 s

Time = 0.50037

Courant Number mean: 0.0822694 max: 0.524107
smoothSolver:  Solving for Ux, Initial residual = 0.000101567, Final residual = 2.46103e-06, No Iterations 1
smoothSolver:  Solving for Uy, Initial residual = 0.000987787, Final residual = 8.56795e-07, No Iterations 2
GAMG:  Solving for p, Initial residual = 0.00949094, Final residual = 0.000715247, No Iterations 3
time step continuity errors : sum local = 2.6797e-09, global = -3.81636e-11, cumulative = -1.31245e-09
GAMG:  Solving for p, Initial residual = 0.0012715, Final residual = 7.30575e-07, No Iterations 7
time step continuity errors : sum local = 2.73842e-12, global = 3.88138e-13, cumulative = -1.31206e-09
smoothSolver:  Solving for k, Initial residual = 0.000977055, Final residual = 7.72909e-07, No Iterations 2
bounding k, min: 0 max: 0.00136009 average: 3.21822e-05
ExecutionTime = 12.51 s  ClockTime = 13 s

Time = 0.50038

Courant Number mean: 0.0822703 max: 0.52555
smoothSolver:  Solving for Ux, Initial residual = 0.00010162, Final residual = 2.46311e-06, No Iterations 1
smoothSolver:  Solving for Uy, Initial residual = 0.000988095, Final residual = 8.58066e-07, No Iterations 2
GAMG:  Solving for p, Initial residual = 0.00962918, Final residual = 0.000722097, No Iterations 3
time step continuity errors : sum local = 2.70628e-09, global = -3.70125e-11, cumulative = -1.34907e-09
GAMG:  Solving for p, Initial residual = 0.00127652, Final residual = 7.60278e-07, No Iterations 7
time step continuity errors : sum local = 2.85115e-12, global = 3.75398e-13, cumulative = -1.3487e-09
smoothSolver:  Solving for k, Initial residual = 0.000976576, Final residual = 7.71595e-07, No Iterations 2
bounding k, min: 0 max: 0.00136138 average: 3.21835e-05
ExecutionTime = 12.82 s  ClockTime = 13 s

Time = 0.50039

Courant Number mean: 0.0822717 max: 0.526939
smoothSolver:  Solving for Ux, Initial residual = 0.000101674, Final residual = 2.46501e-06, No Iterations 1
smoothSolver:  Solving for Uy, Initial residual = 0.000988145, Final residual = 8.59392e-07, No Iterations 2
GAMG:  Solving for p, Initial residual = 0.00989121, Final residual = 0.000718573, No Iterations 3
time step continuity errors : sum local = 2.6925e-09, global = -3.44782e-11, cumulative = -1.38318e-09
GAMG:  Solving for p, Initial residual = 0.00128125, Final residual = 7.48075e-07, No Iterations 7
time step continuity errors : sum local = 2.80365e-12, global = 3.69773e-13, cumulative = -1.38281e-09
smoothSolver:  Solving for k, Initial residual = 0.000976128, Final residual = 7.73045e-07, No Iterations 2
bounding k, min: 0 max: 0.0013625 average: 3.21849e-05
ExecutionTime = 13.12 s  ClockTime = 13 s

Time = 0.5004

Courant Number mean: 0.0822732 max: 0.528271
smoothSolver:  Solving for Ux, Initial residual = 0.000101748, Final residual = 2.46724e-06, No Iterations 1
smoothSolver:  Solving for Uy, Initial residual = 0.000988074, Final residual = 8.60143e-07, No Iterations 2
GAMG:  Solving for p, Initial residual = 0.00995542, Final residual = 0.000704317, No Iterations 3
time step continuity errors : sum local = 2.63751e-09, global = -4.15634e-11, cumulative = -1.42437e-09
GAMG:  Solving for p, Initial residual = 0.00127755, Final residual = 6.5832e-07, No Iterations 7
time step continuity errors : sum local = 2.46601e-12, global = 3.47648e-13, cumulative = -1.42402e-09
smoothSolver:  Solving for k, Initial residual = 0.000975835, Final residual = 7.72808e-07, No Iterations 2
bounding k, min: 0 max: 0.00136346 average: 3.21863e-05
ExecutionTime = 13.42 s  ClockTime = 14 s

Time = 0.50041

Courant Number mean: 0.0822747 max: 0.529554
smoothSolver:  Solving for Ux, Initial residual = 0.000101808, Final residual = 2.46913e-06, No Iterations 1
smoothSolver:  Solving for Uy, Initial residual = 0.000987999, Final residual = 8.61024e-07, No Iterations 2
GAMG:  Solving for p, Initial residual = 0.00984735, Final residual = 0.000731619, No Iterations 3
time step continuity errors : sum local = 2.73848e-09, global = -3.88187e-11, cumulative = -1.46284e-09
GAMG:  Solving for p, Initial residual = 0.00129982, Final residual = 7.56106e-07, No Iterations 7
time step continuity errors : sum local = 2.83002e-12, global = 3.87113e-13, cumulative = -1.46245e-09
smoothSolver:  Solving for k, Initial residual = 0.000975494, Final residual = 7.73219e-07, No Iterations 2
bounding k, min: 0 max: 0.00136423 average: 3.21877e-05
ExecutionTime = 13.73 s  ClockTime = 14 s

Time = 0.50042

Courant Number mean: 0.082276 max: 0.530786
smoothSolver:  Solving for Ux, Initial residual = 0.000101874, Final residual = 2.47172e-06, No Iterations 1
smoothSolver:  Solving for Uy, Initial residual = 0.00098786, Final residual = 8.6193e-07, No Iterations 2
GAMG:  Solving for p, Initial residual = 0.00936565, Final residual = 0.000669234, No Iterations 3
time step continuity errors : sum local = 2.50309e-09, global = -3.76962e-11, cumulative = -1.50015e-09
GAMG:  Solving for p, Initial residual = 0.00125178, Final residual = 5.55656e-07, No Iterations 7
time step continuity errors : sum local = 2.07868e-12, global = 3.1301e-13, cumulative = -1.49984e-09
smoothSolver:  Solving for k, Initial residual = 0.00097515, Final residual = 7.72778e-07, No Iterations 2
bounding k, min: 0 max: 0.00136482 average: 3.21892e-05
ExecutionTime = 14.02 s  ClockTime = 14 s

Time = 0.50043

Courant Number mean: 0.0822772 max: 0.531972
smoothSolver:  Solving for Ux, Initial residual = 0.000101952, Final residual = 2.47415e-06, No Iterations 1
smoothSolver:  Solving for Uy, Initial residual = 0.000987769, Final residual = 8.62524e-07, No Iterations 2
GAMG:  Solving for p, Initial residual = 0.0093866, Final residual = 0.000690954, No Iterations 3
time step continuity errors : sum local = 2.58468e-09, global = -4.17282e-11, cumulative = -1.54157e-09
GAMG:  Solving for p, Initial residual = 0.00127029, Final residual = 6.33328e-07, No Iterations 7
time step continuity errors : sum local = 2.3704e-12, global = 2.41595e-13, cumulative = -1.54132e-09
smoothSolver:  Solving for k, Initial residual = 0.000974752, Final residual = 7.7207e-07, No Iterations 2
bounding k, min: 0 max: 0.00136514 average: 3.21907e-05
ExecutionTime = 14.34 s  ClockTime = 14 s

Time = 0.50044

Courant Number mean: 0.0822783 max: 0.533106
smoothSolver:  Solving for Ux, Initial residual = 0.000102033, Final residual = 2.47685e-06, No Iterations 1
smoothSolver:  Solving for Uy, Initial residual = 0.000988153, Final residual = 8.62828e-07, No Iterations 2
GAMG:  Solving for p, Initial residual = 0.00929754, Final residual = 0.000694982, No Iterations 3
time step continuity errors : sum local = 2.59939e-09, global = -3.80668e-11, cumulative = -1.57939e-09
GAMG:  Solving for p, Initial residual = 0.00126551, Final residual = 9.87264e-07, No Iterations 6
time step continuity errors : sum local = 3.69469e-12, global = -1.09555e-12, cumulative = -1.58049e-09
smoothSolver:  Solving for k, Initial residual = 0.000974492, Final residual = 7.72699e-07, No Iterations 2
bounding k, min: 0 max: 0.00136521 average: 3.21922e-05
ExecutionTime = 14.63 s  ClockTime = 15 s

Time = 0.50045

Courant Number mean: 0.0822794 max: 0.534193
smoothSolver:  Solving for Ux, Initial residual = 0.000102111, Final residual = 2.47998e-06, No Iterations 1
smoothSolver:  Solving for Uy, Initial residual = 0.000988716, Final residual = 8.62748e-07, No Iterations 2
GAMG:  Solving for p, Initial residual = 0.00921629, Final residual = 0.000687945, No Iterations 3
time step continuity errors : sum local = 2.57332e-09, global = -3.91335e-11, cumulative = -1.61962e-09
GAMG:  Solving for p, Initial residual = 0.00125504, Final residual = 6.1456e-07, No Iterations 7
time step continuity errors : sum local = 2.29905e-12, global = -5.23486e-13, cumulative = -1.62014e-09
smoothSolver:  Solving for k, Initial residual = 0.000974218, Final residual = 7.70771e-07, No Iterations 2
bounding k, min: 0 max: 0.00136498 average: 3.21938e-05
ExecutionTime = 14.93 s  ClockTime = 15 s

Time = 0.50046

Courant Number mean: 0.0822803 max: 0.535234
smoothSolver:  Solving for Ux, Initial residual = 0.000102189, Final residual = 2.4832e-06, No Iterations 1
smoothSolver:  Solving for Uy, Initial residual = 0.000989403, Final residual = 8.62663e-07, No Iterations 2
GAMG:  Solving for p, Initial residual = 0.00889473, Final residual = 0.000670039, No Iterations 3
time step continuity errors : sum local = 2.5042e-09, global = -3.4028e-11, cumulative = -1.65417e-09
GAMG:  Solving for p, Initial residual = 0.00124174, Final residual = 6.75945e-07, No Iterations 7
time step continuity errors : sum local = 2.52739e-12, global = 3.58549e-13, cumulative = -1.65381e-09
smoothSolver:  Solving for k, Initial residual = 0.000973925, Final residual = 7.70794e-07, No Iterations 2
bounding k, min: 0 max: 0.00136444 average: 3.21954e-05
ExecutionTime = 15.24 s  ClockTime = 15 s

Time = 0.50047

Courant Number mean: 0.0822811 max: 0.536228
smoothSolver:  Solving for Ux, Initial residual = 0.000102257, Final residual = 2.48584e-06, No Iterations 1
smoothSolver:  Solving for Uy, Initial residual = 0.000989929, Final residual = 8.62283e-07, No Iterations 2
GAMG:  Solving for p, Initial residual = 0.00913786, Final residual = 0.000659051, No Iterations 3
time step continuity errors : sum local = 2.46355e-09, global = -3.38672e-11, cumulative = -1.68768e-09
GAMG:  Solving for p, Initial residual = 0.00124263, Final residual = 6.62367e-07, No Iterations 7
time step continuity errors : sum local = 2.47719e-12, global = 3.4947e-13, cumulative = -1.68733e-09
smoothSolver:  Solving for k, Initial residual = 0.000973565, Final residual = 7.70913e-07, No Iterations 2
bounding k, min: 0 max: 0.00136356 average: 3.21971e-05
ExecutionTime = 15.54 s  ClockTime = 16 s

Time = 0.50048

Courant Number mean: 0.0822817 max: 0.537177
smoothSolver:  Solving for Ux, Initial residual = 0.000102328, Final residual = 2.48835e-06, No Iterations 1
smoothSolver:  Solving for Uy, Initial residual = 0.000990457, Final residual = 8.6233e-07, No Iterations 2
GAMG:  Solving for p, Initial residual = 0.00906702, Final residual = 0.000699797, No Iterations 3
time step continuity errors : sum local = 2.61646e-09, global = -3.35164e-11, cumulative = -1.72085e-09
GAMG:  Solving for p, Initial residual = 0.00126287, Final residual = 6.0827e-07, No Iterations 7
time step continuity errors : sum local = 2.27537e-12, global = 3.36046e-13, cumulative = -1.72051e-09
smoothSolver:  Solving for k, Initial residual = 0.000973163, Final residual = 7.70664e-07, No Iterations 2
bounding k, min: 0 max: 0.00136234 average: 3.21988e-05
ExecutionTime = 15.86 s  ClockTime = 16 s

Time = 0.50049

Courant Number mean: 0.0822823 max: 0.538082
smoothSolver:  Solving for Ux, Initial residual = 0.0001024, Final residual = 2.491e-06, No Iterations 1
smoothSolver:  Solving for Uy, Initial residual = 0.000990757, Final residual = 8.62997e-07, No Iterations 2
GAMG:  Solving for p, Initial residual = 0.00932519, Final residual = 0.000661253, No Iterations 3
time step continuity errors : sum local = 2.47278e-09, global = -3.19522e-11, cumulative = -1.75246e-09
GAMG:  Solving for p, Initial residual = 0.00124651, Final residual = 6.50626e-07, No Iterations 7
time step continuity errors : sum local = 2.43384e-12, global = 3.21836e-13, cumulative = -1.75214e-09
smoothSolver:  Solving for k, Initial residual = 0.000972805, Final residual = 7.71852e-07, No Iterations 2
bounding k, min: 0 max: 0.00136078 average: 3.22005e-05
ExecutionTime = 16.16 s  ClockTime = 16 s

Time = 0.5005

Courant Number mean: 0.0822831 max: 0.538943
smoothSolver:  Solving for Ux, Initial residual = 0.000102479, Final residual = 2.49391e-06, No Iterations 1
smoothSolver:  Solving for Uy, Initial residual = 0.000991041, Final residual = 8.63781e-07, No Iterations 2
GAMG:  Solving for p, Initial residual = 0.00937128, Final residual = 0.000660116, No Iterations 3
time step continuity errors : sum local = 2.46777e-09, global = -3.49551e-11, cumulative = -1.7871e-09
GAMG:  Solving for p, Initial residual = 0.00125902, Final residual = 6.81756e-07, No Iterations 7
time step continuity errors : sum local = 2.54973e-12, global = 3.42442e-13, cumulative = -1.78675e-09
smoothSolver:  Solving for k, Initial residual = 0.000972354, Final residual = 7.71431e-07, No Iterations 2
bounding k, min: 0 max: 0.00135887 average: 3.22023e-05
ExecutionTime = 16.53 s  ClockTime = 17 s

Time = 0.50051

Courant Number mean: 0.0822841 max: 0.539761
smoothSolver:  Solving for Ux, Initial residual = 0.000102528, Final residual = 2.49594e-06, No Iterations 1
smoothSolver:  Solving for Uy, Initial residual = 0.000991098, Final residual = 8.64666e-07, No Iterations 2
GAMG:  Solving for p, Initial residual = 0.00945127, Final residual = 0.000681118, No Iterations 3
time step continuity errors : sum local = 2.54572e-09, global = -3.26639e-11, cumulative = -1.81942e-09
GAMG:  Solving for p, Initial residual = 0.00126257, Final residual = 6.5766e-07, No Iterations 7
time step continuity errors : sum local = 2.45894e-12, global = 3.4003e-13, cumulative = -1.81908e-09
smoothSolver:  Solving for k, Initial residual = 0.00097189, Final residual = 7.73246e-07, No Iterations 2
bounding k, min: 0 max: 0.00135661 average: 3.22041e-05
ExecutionTime = 16.86 s  ClockTime = 17 s

Time = 0.50052

Courant Number mean: 0.0822853 max: 0.540536
smoothSolver:  Solving for Ux, Initial residual = 0.000102587, Final residual = 2.49886e-06, No Iterations 1
smoothSolver:  Solving for Uy, Initial residual = 0.000991021, Final residual = 8.65573e-07, No Iterations 2
GAMG:  Solving for p, Initial residual = 0.00923154, Final residual = 0.000684979, No Iterations 3
time step continuity errors : sum local = 2.56012e-09, global = -3.11273e-11, cumulative = -1.85021e-09
GAMG:  Solving for p, Initial residual = 0.00126237, Final residual = 6.36518e-07, No Iterations 7
time step continuity errors : sum local = 2.37999e-12, global = 3.36179e-13, cumulative = -1.84987e-09
smoothSolver:  Solving for k, Initial residual = 0.000971549, Final residual = 7.7349e-07, No Iterations 2
bounding k, min: 0 max: 0.00135623 average: 3.2206e-05
ExecutionTime = 17.2 s  ClockTime = 17 s

Time = 0.50053

Courant Number mean: 0.0822866 max: 0.541271
smoothSolver:  Solving for Ux, Initial residual = 0.000102655, Final residual = 2.502e-06, No Iterations 1
smoothSolver:  Solving for Uy, Initial residual = 0.000990897, Final residual = 8.66599e-07, No Iterations 2
GAMG:  Solving for p, Initial residual = 0.00909464, Final residual = 0.000695233, No Iterations 3
time step continuity errors : sum local = 2.59859e-09, global = -2.98526e-11, cumulative = -1.87972e-09
GAMG:  Solving for p, Initial residual = 0.00126683, Final residual = 6.96044e-07, No Iterations 7
time step continuity errors : sum local = 2.60263e-12, global = 3.61443e-13, cumulative = -1.87936e-09
smoothSolver:  Solving for k, Initial residual = 0.000971176, Final residual = 7.74605e-07, No Iterations 2
bounding k, min: 0 max: 0.00135884 average: 3.22078e-05
ExecutionTime = 17.57 s  ClockTime = 18 s

Time = 0.50054

Courant Number mean: 0.0822881 max: 0.541966
smoothSolver:  Solving for Ux, Initial residual = 0.000102719, Final residual = 2.50495e-06, No Iterations 1
smoothSolver:  Solving for Uy, Initial residual = 0.000990891, Final residual = 8.67654e-07, No Iterations 2
GAMG:  Solving for p, Initial residual = 0.00907673, Final residual = 0.000705461, No Iterations 3
time step continuity errors : sum local = 2.6371e-09, global = -2.96293e-11, cumulative = -1.90899e-09
GAMG:  Solving for p, Initial residual = 0.00127703, Final residual = 6.38155e-07, No Iterations 7
time step continuity errors : sum local = 2.38672e-12, global = 3.37026e-13, cumulative = -1.90865e-09
smoothSolver:  Solving for k, Initial residual = 0.000970742, Final residual = 7.7278e-07, No Iterations 2
bounding k, min: 0 max: 0.00136136 average: 3.22097e-05
ExecutionTime = 17.99 s  ClockTime = 18 s

Time = 0.50055

Courant Number mean: 0.0822893 max: 0.542623
smoothSolver:  Solving for Ux, Initial residual = 0.000102789, Final residual = 2.5078e-06, No Iterations 1
smoothSolver:  Solving for Uy, Initial residual = 0.000991188, Final residual = 8.68524e-07, No Iterations 2
GAMG:  Solving for p, Initial residual = 0.00950666, Final residual = 0.000696985, No Iterations 3
time step continuity errors : sum local = 2.60607e-09, global = -2.8715e-11, cumulative = -1.93737e-09
GAMG:  Solving for p, Initial residual = 0.00128214, Final residual = 6.85078e-07, No Iterations 7
time step continuity errors : sum local = 2.56275e-12, global = 3.53028e-13, cumulative = -1.93701e-09
smoothSolver:  Solving for k, Initial residual = 0.000970282, Final residual = 7.71099e-07, No Iterations 2
bounding k, min: 0 max: 0.0013638 average: 3.22117e-05
ExecutionTime = 18.3 s  ClockTime = 18 s

Time = 0.50056

Courant Number mean: 0.0822905 max: 0.543241
smoothSolver:  Solving for Ux, Initial residual = 0.000102863, Final residual = 2.51084e-06, No Iterations 1
smoothSolver:  Solving for Uy, Initial residual = 0.000991643, Final residual = 8.68985e-07, No Iterations 2
GAMG:  Solving for p, Initial residual = 0.00885687, Final residual = 0.00067745, No Iterations 3
time step continuity errors : sum local = 2.5339e-09, global = -2.64446e-11, cumulative = -1.96346e-09
GAMG:  Solving for p, Initial residual = 0.00125439, Final residual = 6.49425e-07, No Iterations 7
time step continuity errors : sum local = 2.4307e-12, global = 3.4264e-13, cumulative = -1.96312e-09
smoothSolver:  Solving for k, Initial residual = 0.000969819, Final residual = 7.70417e-07, No Iterations 2
bounding k, min: 0 max: 0.00136616 average: 3.22137e-05
ExecutionTime = 18.63 s  ClockTime = 19 s

Time = 0.50057

Courant Number mean: 0.0822915 max: 0.543822
smoothSolver:  Solving for Ux, Initial residual = 0.000102933, Final residual = 2.51398e-06, No Iterations 1
smoothSolver:  Solving for Uy, Initial residual = 0.000992296, Final residual = 8.69135e-07, No Iterations 2
GAMG:  Solving for p, Initial residual = 0.0091012, Final residual = 0.000688759, No Iterations 3
time step continuity errors : sum local = 2.57795e-09, global = -2.50576e-11, cumulative = -1.98817e-09
GAMG:  Solving for p, Initial residual = 0.00126389, Final residual = 6.21373e-07, No Iterations 7
time step continuity errors : sum local = 2.32742e-12, global = 3.3438e-13, cumulative = -1.98784e-09
smoothSolver:  Solving for k, Initial residual = 0.000969394, Final residual = 7.72135e-07, No Iterations 2
bounding k, min: 0 max: 0.00136843 average: 3.22157e-05
ExecutionTime = 18.97 s  ClockTime = 19 s

Time = 0.50058

Courant Number mean: 0.0822925 max: 0.544367
smoothSolver:  Solving for Ux, Initial residual = 0.000103001, Final residual = 2.5169e-06, No Iterations 1
smoothSolver:  Solving for Uy, Initial residual = 0.000992986, Final residual = 8.6894e-07, No Iterations 2
GAMG:  Solving for p, Initial residual = 0.00980251, Final residual = 0.000684217, No Iterations 3
time step continuity errors : sum local = 2.56211e-09, global = -2.62069e-11, cumulative = -2.01405e-09
GAMG:  Solving for p, Initial residual = 0.00128302, Final residual = 7.24916e-07, No Iterations 7
time step continuity errors : sum local = 2.71538e-12, global = 3.64319e-13, cumulative = -2.01368e-09
smoothSolver:  Solving for k, Initial residual = 0.000969107, Final residual = 7.73762e-07, No Iterations 2
bounding k, min: 0 max: 0.00137062 average: 3.22177e-05
ExecutionTime = 19.33 s  ClockTime = 20 s

Time = 0.50059

Courant Number mean: 0.0822934 max: 0.544876
smoothSolver:  Solving for Ux, Initial residual = 0.000103078, Final residual = 2.51998e-06, No Iterations 1
smoothSolver:  Solving for Uy, Initial residual = 0.000993709, Final residual = 8.68844e-07, No Iterations 2
GAMG:  Solving for p, Initial residual = 0.00975901, Final residual = 0.000738581, No Iterations 3
time step continuity errors : sum local = 2.76503e-09, global = -2.61553e-11, cumulative = -2.03984e-09
GAMG:  Solving for p, Initial residual = 0.00131956, Final residual = 6.34863e-07, No Iterations 7
time step continuity errors : sum local = 2.37758e-12, global = 3.336e-13, cumulative = -2.0395e-09
smoothSolver:  Solving for k, Initial residual = 0.000968752, Final residual = 7.73729e-07, No Iterations 2
bounding k, min: 0 max: 0.00137272 average: 3.22198e-05
ExecutionTime = 19.78 s  ClockTime = 20 s

Time = 0.5006

Courant Number mean: 0.0822941 max: 0.54535
smoothSolver:  Solving for Ux, Initial residual = 0.000103146, Final residual = 2.52304e-06, No Iterations 1
smoothSolver:  Solving for Uy, Initial residual = 0.000994358, Final residual = 8.68965e-07, No Iterations 2
GAMG:  Solving for p, Initial residual = 0.00910971, Final residual = 0.000705607, No Iterations 3
time step continuity errors : sum local = 2.64156e-09, global = -2.17131e-11, cumulative = -2.06122e-09
GAMG:  Solving for p, Initial residual = 0.00128059, Final residual = 7.63683e-07, No Iterations 6
time step continuity errors : sum local = 2.86012e-12, global = -3.12837e-13, cumulative = -2.06153e-09
smoothSolver:  Solving for k, Initial residual = 0.000968392, Final residual = 7.71989e-07, No Iterations 2
bounding k, min: 0 max: 0.00137473 average: 3.22219e-05
ExecutionTime = 20.15 s  ClockTime = 20 s

Time = 0.50061

Courant Number mean: 0.082295 max: 0.54579
smoothSolver:  Solving for Ux, Initial residual = 0.000103206, Final residual = 2.52587e-06, No Iterations 1
smoothSolver:  Solving for Uy, Initial residual = 0.000994699, Final residual = 8.69566e-07, No Iterations 2
GAMG:  Solving for p, Initial residual = 0.00898018, Final residual = 0.000738696, No Iterations 3
time step continuity errors : sum local = 2.76616e-09, global = -2.22107e-11, cumulative = -2.08374e-09
GAMG:  Solving for p, Initial residual = 0.0013076, Final residual = 9.24688e-07, No Iterations 6
time step continuity errors : sum local = 3.46303e-12, global = -7.72634e-13, cumulative = -2.08451e-09
smoothSolver:  Solving for k, Initial residual = 0.000967961, Final residual = 7.71607e-07, No Iterations 2
bounding k, min: 0 max: 0.00137664 average: 3.2224e-05
ExecutionTime = 20.5 s  ClockTime = 21 s

Time = 0.50062

Courant Number mean: 0.082296 max: 0.546198
smoothSolver:  Solving for Ux, Initial residual = 0.000103259, Final residual = 2.52831e-06, No Iterations 1
smoothSolver:  Solving for Uy, Initial residual = 0.00099476, Final residual = 8.70332e-07, No Iterations 2
GAMG:  Solving for p, Initial residual = 0.00895334, Final residual = 0.000730911, No Iterations 3
time step continuity errors : sum local = 2.7374e-09, global = -2.42816e-11, cumulative = -2.1088e-09
GAMG:  Solving for p, Initial residual = 0.00130257, Final residual = 6.25451e-07, No Iterations 7
time step continuity errors : sum local = 2.34343e-12, global = 3.32883e-13, cumulative = -2.10846e-09
smoothSolver:  Solving for k, Initial residual = 0.000967621, Final residual = 7.71808e-07, No Iterations 2
bounding k, min: 0 max: 0.00137846 average: 3.22262e-05
ExecutionTime = 20.88 s  ClockTime = 21 s

Time = 0.50063

Courant Number mean: 0.082297 max: 0.546573
smoothSolver:  Solving for Ux, Initial residual = 0.000103315, Final residual = 2.53089e-06, No Iterations 1
smoothSolver:  Solving for Uy, Initial residual = 0.000994763, Final residual = 8.71108e-07, No Iterations 2
GAMG:  Solving for p, Initial residual = 0.0092432, Final residual = 0.000715206, No Iterations 3
time step continuity errors : sum local = 2.67961e-09, global = -2.31475e-11, cumulative = -2.13161e-09
GAMG:  Solving for p, Initial residual = 0.00129277, Final residual = 6.69341e-07, No Iterations 7
time step continuity errors : sum local = 2.5093e-12, global = 3.51415e-13, cumulative = -2.13126e-09
smoothSolver:  Solving for k, Initial residual = 0.000967353, Final residual = 7.73046e-07, No Iterations 2
bounding k, min: 0 max: 0.00138018 average: 3.22284e-05
ExecutionTime = 21.21 s  ClockTime = 21 s

Time = 0.50064

Courant Number mean: 0.082298 max: 0.546917
smoothSolver:  Solving for Ux, Initial residual = 0.000103379, Final residual = 2.53389e-06, No Iterations 1
smoothSolver:  Solving for Uy, Initial residual = 0.000994664, Final residual = 8.72145e-07, No Iterations 2
GAMG:  Solving for p, Initial residual = 0.00894164, Final residual = 0.000745202, No Iterations 3
time step continuity errors : sum local = 2.79208e-09, global = -2.0598e-11, cumulative = -2.15186e-09
GAMG:  Solving for p, Initial residual = 0.00131384, Final residual = 8.35215e-07, No Iterations 6
time step continuity errors : sum local = 3.12954e-12, global = -4.64496e-13, cumulative = -2.15232e-09
smoothSolver:  Solving for k, Initial residual = 0.000966999, Final residual = 7.7331e-07, No Iterations 2
bounding k, min: 0 max: 0.00138181 average: 3.22306e-05
ExecutionTime = 21.51 s  ClockTime = 22 s

Time = 0.50065

Courant Number mean: 0.0822989 max: 0.547231
smoothSolver:  Solving for Ux, Initial residual = 0.000103443, Final residual = 2.53676e-06, No Iterations 1
smoothSolver:  Solving for Uy, Initial residual = 0.000994662, Final residual = 8.72957e-07, No Iterations 2
GAMG:  Solving for p, Initial residual = 0.00870472, Final residual = 0.000714995, No Iterations 3
time step continuity errors : sum local = 2.67896e-09, global = -2.20045e-11, cumulative = -2.17433e-09
GAMG:  Solving for p, Initial residual = 0.00128325, Final residual = 5.9927e-07, No Iterations 7
time step continuity errors : sum local = 2.24596e-12, global = 3.14491e-13, cumulative = -2.17401e-09
smoothSolver:  Solving for k, Initial residual = 0.000966722, Final residual = 7.77116e-07, No Iterations 2
bounding k, min: 0 max: 0.00138334 average: 3.22328e-05
ExecutionTime = 21.84 s  ClockTime = 22 s

Time = 0.50066

Courant Number mean: 0.0822999 max: 0.547516
smoothSolver:  Solving for Ux, Initial residual = 0.000103513, Final residual = 2.54003e-06, No Iterations 1
smoothSolver:  Solving for Uy, Initial residual = 0.000994941, Final residual = 8.7374e-07, No Iterations 2
GAMG:  Solving for p, Initial residual = 0.00869564, Final residual = 0.000716073, No Iterations 3
time step continuity errors : sum local = 2.68264e-09, global = -2.00564e-11, cumulative = -2.19407e-09
GAMG:  Solving for p, Initial residual = 0.00128641, Final residual = 9.50124e-07, No Iterations 6
time step continuity errors : sum local = 3.56029e-12, global = -8.57353e-13, cumulative = -2.19492e-09
smoothSolver:  Solving for k, Initial residual = 0.00096638, Final residual = 7.75037e-07, No Iterations 2
bounding k, min: 0 max: 0.00138476 average: 3.22351e-05
ExecutionTime = 22.2 s  ClockTime = 22 s

Time = 0.50067

Courant Number mean: 0.0823009 max: 0.547772
smoothSolver:  Solving for Ux, Initial residual = 0.000103573, Final residual = 2.54328e-06, No Iterations 1
smoothSolver:  Solving for Uy, Initial residual = 0.000995471, Final residual = 8.74167e-07, No Iterations 2
GAMG:  Solving for p, Initial residual = 0.00848952, Final residual = 0.000706492, No Iterations 3
time step continuity errors : sum local = 2.64708e-09, global = -2.17962e-11, cumulative = -2.21672e-09
GAMG:  Solving for p, Initial residual = 0.00128084, Final residual = 5.98318e-07, No Iterations 7
time step continuity errors : sum local = 2.24233e-12, global = 3.15396e-13, cumulative = -2.21641e-09
smoothSolver:  Solving for k, Initial residual = 0.000966119, Final residual = 7.72045e-07, No Iterations 2
bounding k, min: 0 max: 0.00138606 average: 3.22375e-05
ExecutionTime = 22.52 s  ClockTime = 23 s

Time = 0.50068

Courant Number mean: 0.082302 max: 0.548001
smoothSolver:  Solving for Ux, Initial residual = 0.000103644, Final residual = 2.54655e-06, No Iterations 1
smoothSolver:  Solving for Uy, Initial residual = 0.000996304, Final residual = 8.7447e-07, No Iterations 2
GAMG:  Solving for p, Initial residual = 0.00902847, Final residual = 0.000695613, No Iterations 3
time step continuity errors : sum local = 2.60718e-09, global = -2.0648e-11, cumulative = -2.23705e-09
GAMG:  Solving for p, Initial residual = 0.00128274, Final residual = 5.7992e-07, No Iterations 7
time step continuity errors : sum local = 2.17512e-12, global = 3.18374e-13, cumulative = -2.23674e-09
smoothSolver:  Solving for k, Initial residual = 0.000965876, Final residual = 7.72535e-07, No Iterations 2
bounding k, min: 0 max: 0.00138725 average: 3.22398e-05
ExecutionTime = 22.83 s  ClockTime = 23 s

Time = 0.50069

Courant Number mean: 0.0823031 max: 0.548202
smoothSolver:  Solving for Ux, Initial residual = 0.0001037, Final residual = 2.5495e-06, No Iterations 1
smoothSolver:  Solving for Uy, Initial residual = 0.000996907, Final residual = 8.7453e-07, No Iterations 2
GAMG:  Solving for p, Initial residual = 0.00933664, Final residual = 0.000719827, No Iterations 3
time step continuity errors : sum local = 2.69879e-09, global = -2.08304e-11, cumulative = -2.25757e-09
GAMG:  Solving for p, Initial residual = 0.00131366, Final residual = 8.45567e-07, No Iterations 6
time step continuity errors : sum local = 3.17052e-12, global = -7.65368e-13, cumulative = -2.25833e-09
smoothSolver:  Solving for k, Initial residual = 0.000965556, Final residual = 7.71642e-07, No Iterations 2
bounding k, min: 0 max: 0.00138832 average: 3.22422e-05
ExecutionTime = 23.2 s  ClockTime = 23 s

Time = 0.5007

Courant Number mean: 0.0823041 max: 0.548378
smoothSolver:  Solving for Ux, Initial residual = 0.000103753, Final residual = 2.55223e-06, No Iterations 1
smoothSolver:  Solving for Uy, Initial residual = 0.000997373, Final residual = 8.74524e-07, No Iterations 2
GAMG:  Solving for p, Initial residual = 0.00894096, Final residual = 0.000727778, No Iterations 3
time step continuity errors : sum local = 2.72814e-09, global = -2.2154e-11, cumulative = -2.28049e-09
GAMG:  Solving for p, Initial residual = 0.00130624, Final residual = 5.61093e-07, No Iterations 7
time step continuity errors : sum local = 2.10359e-12, global = 2.92954e-13, cumulative = -2.28019e-09
smoothSolver:  Solving for k, Initial residual = 0.000965131, Final residual = 7.71936e-07, No Iterations 2
bounding k, min: 0 max: 0.00138929 average: 3.22446e-05
ExecutionTime = 23.62 s  ClockTime = 24 s

Time = 0.50071

Courant Number mean: 0.0823049 max: 0.548529
smoothSolver:  Solving for Ux, Initial residual = 0.000103819, Final residual = 2.55497e-06, No Iterations 1
smoothSolver:  Solving for Uy, Initial residual = 0.000997703, Final residual = 8.74628e-07, No Iterations 2
GAMG:  Solving for p, Initial residual = 0.00873656, Final residual = 0.000730293, No Iterations 3
time step continuity errors : sum local = 2.7374e-09, global = -2.03323e-11, cumulative = -2.30052e-09
GAMG:  Solving for p, Initial residual = 0.00130728, Final residual = 7.86922e-07, No Iterations 6
time step continuity errors : sum local = 2.95085e-12, global = -2.70782e-13, cumulative = -2.3008e-09
smoothSolver:  Solving for k, Initial residual = 0.000964657, Final residual = 7.7161e-07, No Iterations 2
bounding k, min: 0 max: 0.00139012 average: 3.2247e-05
ExecutionTime = 24.04 s  ClockTime = 24 s

Time = 0.50072

Courant Number mean: 0.0823057 max: 0.548655
smoothSolver:  Solving for Ux, Initial residual = 0.000103876, Final residual = 2.55769e-06, No Iterations 1
smoothSolver:  Solving for Uy, Initial residual = 0.000997932, Final residual = 8.74842e-07, No Iterations 2
GAMG:  Solving for p, Initial residual = 0.0090927, Final residual = 0.000733281, No Iterations 3
time step continuity errors : sum local = 2.74946e-09, global = -2.30754e-11, cumulative = -2.32387e-09
GAMG:  Solving for p, Initial residual = 0.00131718, Final residual = 6.06268e-07, No Iterations 7
time step continuity errors : sum local = 2.27359e-12, global = 3.20801e-13, cumulative = -2.32355e-09
smoothSolver:  Solving for k, Initial residual = 0.000964254, Final residual = 7.70566e-07, No Iterations 2
bounding k, min: 0 max: 0.00139079 average: 3.22494e-05
ExecutionTime = 24.47 s  ClockTime = 25 s

Time = 0.50073

Courant Number mean: 0.0823066 max: 0.548757
smoothSolver:  Solving for Ux, Initial residual = 0.00010394, Final residual = 2.56042e-06, No Iterations 1
smoothSolver:  Solving for Uy, Initial residual = 0.000998284, Final residual = 8.75718e-07, No Iterations 2
GAMG:  Solving for p, Initial residual = 0.00906038, Final residual = 0.000721878, No Iterations 3
time step continuity errors : sum local = 2.70618e-09, global = -2.1452e-11, cumulative = -2.345e-09
GAMG:  Solving for p, Initial residual = 0.00130804, Final residual = 5.53096e-07, No Iterations 7
time step continuity errors : sum local = 2.07436e-12, global = 3.13243e-13, cumulative = -2.34469e-09
smoothSolver:  Solving for k, Initial residual = 0.000963763, Final residual = 7.70726e-07, No Iterations 2
bounding k, min: 0 max: 0.00139128 average: 3.22519e-05
ExecutionTime = 24.81 s  ClockTime = 25 s

Time = 0.50074

Courant Number mean: 0.0823075 max: 0.548836
smoothSolver:  Solving for Ux, Initial residual = 0.000103996, Final residual = 2.56321e-06, No Iterations 1
smoothSolver:  Solving for Uy, Initial residual = 0.000998441, Final residual = 8.76896e-07, No Iterations 2
GAMG:  Solving for p, Initial residual = 0.0091103, Final residual = 0.000718204, No Iterations 3
time step continuity errors : sum local = 2.69293e-09, global = -2.03055e-11, cumulative = -2.36499e-09
GAMG:  Solving for p, Initial residual = 0.00130673, Final residual = 7.46414e-07, No Iterations 6
time step continuity errors : sum local = 2.79956e-12, global = -2.5388e-13, cumulative = -2.36525e-09
smoothSolver:  Solving for k, Initial residual = 0.000963301, Final residual = 7.72303e-07, No Iterations 2
bounding k, min: 0 max: 0.00139156 average: 3.22543e-05
ExecutionTime = 25.23 s  ClockTime = 25 s

Time = 0.50075

Courant Number mean: 0.0823085 max: 0.548893
smoothSolver:  Solving for Ux, Initial residual = 0.000104068, Final residual = 2.56636e-06, No Iterations 1
smoothSolver:  Solving for Uy, Initial residual = 0.000998548, Final residual = 8.78013e-07, No Iterations 2
GAMG:  Solving for p, Initial residual = 0.00872622, Final residual = 0.000724505, No Iterations 3
time step continuity errors : sum local = 2.71759e-09, global = -2.42732e-11, cumulative = -2.38952e-09
GAMG:  Solving for p, Initial residual = 0.00130758, Final residual = 7.61574e-07, No Iterations 6
time step continuity errors : sum local = 2.85773e-12, global = -4.23279e-13, cumulative = -2.38994e-09
smoothSolver:  Solving for k, Initial residual = 0.000962859, Final residual = 7.73589e-07, No Iterations 2
bounding k, min: 0 max: 0.00139161 average: 3.22568e-05
ExecutionTime = 25.57 s  ClockTime = 26 s

Time = 0.50076

Courant Number mean: 0.0823095 max: 0.548929
smoothSolver:  Solving for Ux, Initial residual = 0.000104143, Final residual = 2.56976e-06, No Iterations 1
smoothSolver:  Solving for Uy, Initial residual = 0.000998801, Final residual = 8.78949e-07, No Iterations 2
GAMG:  Solving for p, Initial residual = 0.00932022, Final residual = 0.000726439, No Iterations 3
time step continuity errors : sum local = 2.72671e-09, global = -2.45056e-11, cumulative = -2.41445e-09
GAMG:  Solving for p, Initial residual = 0.00132547, Final residual = 6.27872e-07, No Iterations 7
time step continuity errors : sum local = 2.35837e-12, global = 3.24249e-13, cumulative = -2.41413e-09
smoothSolver:  Solving for k, Initial residual = 0.000962534, Final residual = 7.75417e-07, No Iterations 2
bounding k, min: 0 max: 0.00139142 average: 3.22593e-05
ExecutionTime = 25.88 s  ClockTime = 26 s

Time = 0.50077

Courant Number mean: 0.0823104 max: 0.548942
smoothSolver:  Solving for Ux, Initial residual = 0.000104227, Final residual = 2.57324e-06, No Iterations 1
smoothSolver:  Solving for Uy, Initial residual = 0.000999104, Final residual = 8.7982e-07, No Iterations 2
GAMG:  Solving for p, Initial residual = 0.00959656, Final residual = 0.000713171, No Iterations 3
time step continuity errors : sum local = 2.67671e-09, global = -2.50461e-11, cumulative = -2.43917e-09
GAMG:  Solving for p, Initial residual = 0.0013293, Final residual = 6.86372e-07, No Iterations 6
time step continuity errors : sum local = 2.57647e-12, global = -1.58217e-13, cumulative = -2.43933e-09
smoothSolver:  Solving for k, Initial residual = 0.000962208, Final residual = 7.75478e-07, No Iterations 2
bounding k, min: 0 max: 0.00139097 average: 3.22618e-05
ExecutionTime = 26.21 s  ClockTime = 26 s

Time = 0.50078

Courant Number mean: 0.0823114 max: 0.548934
smoothSolver:  Solving for Ux, Initial residual = 0.000104291, Final residual = 2.57635e-06, No Iterations 1
smoothSolver:  Solving for Uy, Initial residual = 0.000999486, Final residual = 8.80516e-07, No Iterations 2
GAMG:  Solving for p, Initial residual = 0.00889752, Final residual = 0.000709457, No Iterations 3
time step continuity errors : sum local = 2.66301e-09, global = -2.20433e-11, cumulative = -2.46137e-09
GAMG:  Solving for p, Initial residual = 0.00129726, Final residual = 7.42245e-07, No Iterations 6
time step continuity errors : sum local = 2.78686e-12, global = -1.85274e-13, cumulative = -2.46156e-09
smoothSolver:  Solving for k, Initial residual = 0.000961996, Final residual = 7.77116e-07, No Iterations 2
bounding k, min: 0 max: 0.00139025 average: 3.22644e-05
ExecutionTime = 26.55 s  ClockTime = 27 s

Time = 0.50079

Courant Number mean: 0.0823123 max: 0.548908
smoothSolver:  Solving for Ux, Initial residual = 0.000104353, Final residual = 2.57958e-06, No Iterations 1
smoothSolver:  Solving for Uy, Initial residual = 0.00100021, Final residual = 8.8099e-07, No Iterations 2
GAMG:  Solving for p, Initial residual = 0.00873874, Final residual = 0.00069658, No Iterations 3
time step continuity errors : sum local = 2.61474e-09, global = -2.57016e-11, cumulative = -2.48726e-09
GAMG:  Solving for p, Initial residual = 0.00129161, Final residual = 6.19792e-07, No Iterations 7
time step continuity errors : sum local = 2.32654e-12, global = 3.23205e-13, cumulative = -2.48694e-09
smoothSolver:  Solving for k, Initial residual = 0.000961785, Final residual = 7.73843e-07, No Iterations 2
bounding k, min: 0 max: 0.00138925 average: 3.22669e-05
ExecutionTime = 26.96 s  ClockTime = 27 s

Time = 0.5008

Courant Number mean: 0.0823132 max: 0.548861
smoothSolver:  Solving for Ux, Initial residual = 0.000104415, Final residual = 2.5828e-06, No Iterations 1
smoothSolver:  Solving for Uy, Initial residual = 0.00100088, Final residual = 8.8108e-07, No Iterations 2
GAMG:  Solving for p, Initial residual = 0.00900499, Final residual = 0.000706706, No Iterations 3
time step continuity errors : sum local = 2.65202e-09, global = -2.46964e-11, cumulative = -2.51163e-09
GAMG:  Solving for p, Initial residual = 0.00130823, Final residual = 7.40018e-07, No Iterations 6
time step continuity errors : sum local = 2.77839e-12, global = -4.7732e-13, cumulative = -2.51211e-09
smoothSolver:  Solving for k, Initial residual = 0.000961525, Final residual = 7.75126e-07, No Iterations 2
bounding k, min: 0 max: 0.00138797 average: 3.22695e-05
ExecutionTime = 27.37 s  ClockTime = 28 s

Time = 0.50081

Courant Number mean: 0.082314 max: 0.548795
smoothSolver:  Solving for Ux, Initial residual = 0.000104472, Final residual = 2.58538e-06, No Iterations 1
smoothSolver:  Solving for Uy, Initial residual = 0.00100144, Final residual = 8.80915e-07, No Iterations 2
GAMG:  Solving for p, Initial residual = 0.00899531, Final residual = 0.00072769, No Iterations 3
time step continuity errors : sum local = 2.73151e-09, global = -2.52629e-11, cumulative = -2.53737e-09
GAMG:  Solving for p, Initial residual = 0.00132261, Final residual = 6.88454e-07, No Iterations 6
time step continuity errors : sum local = 2.58478e-12, global = -2.42748e-13, cumulative = -2.53762e-09
smoothSolver:  Solving for k, Initial residual = 0.000961272, Final residual = 7.74303e-07, No Iterations 2
bounding k, min: 0 max: 0.00138641 average: 3.2272e-05
ExecutionTime = 27.7 s  ClockTime = 28 s

Time = 0.50082

Courant Number mean: 0.0823149 max: 0.548711
smoothSolver:  Solving for Ux, Initial residual = 0.00010453, Final residual = 2.58792e-06, No Iterations 1
smoothSolver:  Solving for Uy, Initial residual = 0.00100182, Final residual = 8.81031e-07, No Iterations 2
GAMG:  Solving for p, Initial residual = 0.00882611, Final residual = 0.000717121, No Iterations 3
time step continuity errors : sum local = 2.69263e-09, global = -2.54858e-11, cumulative = -2.5631e-09
GAMG:  Solving for p, Initial residual = 0.00130279, Final residual = 7.0827e-07, No Iterations 6
time step continuity errors : sum local = 2.6605e-12, global = -2.77107e-13, cumulative = -2.56338e-09
smoothSolver:  Solving for k, Initial residual = 0.000960996, Final residual = 7.74718e-07, No Iterations 2
bounding k, min: 0 max: 0.00138456 average: 3.22746e-05
ExecutionTime = 28.03 s  ClockTime = 28 s

Time = 0.50083

Courant Number mean: 0.0823158 max: 0.54861
smoothSolver:  Solving for Ux, Initial residual = 0.000104576, Final residual = 2.59045e-06, No Iterations 1
smoothSolver:  Solving for Uy, Initial residual = 0.00100218, Final residual = 8.81411e-07, No Iterations 2
GAMG:  Solving for p, Initial residual = 0.00874498, Final residual = 0.000718016, No Iterations 3
time step continuity errors : sum local = 2.69696e-09, global = -2.82098e-11, cumulative = -2.59159e-09
GAMG:  Solving for p, Initial residual = 0.00131734, Final residual = 6.39324e-07, No Iterations 6
time step continuity errors : sum local = 2.40212e-12, global = -2.09179e-13, cumulative = -2.5918e-09
smoothSolver:  Solving for k, Initial residual = 0.000960832, Final residual = 7.75933e-07, No Iterations 2
bounding k, min: 0 max: 0.00138623 average: 3.22772e-05
ExecutionTime = 28.39 s  ClockTime = 29 s

Time = 0.50084

Courant Number mean: 0.0823169 max: 0.548491
smoothSolver:  Solving for Ux, Initial residual = 0.000104631, Final residual = 2.59341e-06, No Iterations 1
smoothSolver:  Solving for Uy, Initial residual = 0.00100242, Final residual = 8.8213e-07, No Iterations 2
GAMG:  Solving for p, Initial residual = 0.00903048, Final residual = 0.000705535, No Iterations 3
time step continuity errors : sum local = 2.65142e-09, global = -2.75709e-11, cumulative = -2.61937e-09
GAMG:  Solving for p, Initial residual = 0.00131516, Final residual = 7.73879e-07, No Iterations 6
time step continuity errors : sum local = 2.90998e-12, global = -7.3938e-13, cumulative = -2.62011e-09
smoothSolver:  Solving for k, Initial residual = 0.000960583, Final residual = 7.75071e-07, No Iterations 2
bounding k, min: 0 max: 0.00138865 average: 3.22798e-05
ExecutionTime = 28.7 s  ClockTime = 29 s

Time = 0.50085

Courant Number mean: 0.082318 max: 0.548357
smoothSolver:  Solving for Ux, Initial residual = 0.00010468, Final residual = 2.59606e-06, No Iterations 1
smoothSolver:  Solving for Uy, Initial residual = 0.00100252, Final residual = 8.82971e-07, No Iterations 2
GAMG:  Solving for p, Initial residual = 0.00907247, Final residual = 0.000698726, No Iterations 3
time step continuity errors : sum local = 2.62698e-09, global = -2.76476e-11, cumulative = -2.64776e-09
GAMG:  Solving for p, Initial residual = 0.0013124, Final residual = 6.38254e-07, No Iterations 6
time step continuity errors : sum local = 2.40038e-12, global = -1.33878e-13, cumulative = -2.64789e-09
smoothSolver:  Solving for k, Initial residual = 0.000960449, Final residual = 7.77232e-07, No Iterations 2
bounding k, min: 0 max: 0.00139104 average: 3.22824e-05
ExecutionTime = 29 s  ClockTime = 29 s

Time = 0.50086

Courant Number mean: 0.0823191 max: 0.548207
smoothSolver:  Solving for Ux, Initial residual = 0.000104743, Final residual = 2.59922e-06, No Iterations 1
smoothSolver:  Solving for Uy, Initial residual = 0.00100265, Final residual = 8.84589e-07, No Iterations 2
GAMG:  Solving for p, Initial residual = 0.00892825, Final residual = 0.000702857, No Iterations 3
time step continuity errors : sum local = 2.64379e-09, global = -2.89953e-11, cumulative = -2.67689e-09
GAMG:  Solving for p, Initial residual = 0.00131441, Final residual = 6.57613e-07, No Iterations 6
time step continuity errors : sum local = 2.47479e-12, global = -1.87821e-13, cumulative = -2.67707e-09
smoothSolver:  Solving for k, Initial residual = 0.000960302, Final residual = 7.76853e-07, No Iterations 2
bounding k, min: 0 max: 0.00139339 average: 3.22851e-05
ExecutionTime = 29.29 s  ClockTime = 30 s

Time = 0.50087

Courant Number mean: 0.0823201 max: 0.548042
smoothSolver:  Solving for Ux, Initial residual = 0.000104811, Final residual = 2.60244e-06, No Iterations 1
smoothSolver:  Solving for Uy, Initial residual = 0.00100287, Final residual = 8.86003e-07, No Iterations 2
GAMG:  Solving for p, Initial residual = 0.00925885, Final residual = 0.000699271, No Iterations 3
time step continuity errors : sum local = 2.63208e-09, global = -3.22468e-11, cumulative = -2.70932e-09
GAMG:  Solving for p, Initial residual = 0.00132766, Final residual = 5.80206e-07, No Iterations 6
time step continuity errors : sum local = 2.18512e-12, global = -2.39074e-13, cumulative = -2.70956e-09
smoothSolver:  Solving for k, Initial residual = 0.000960244, Final residual = 7.80244e-07, No Iterations 2
bounding k, min: 0 max: 0.00139571 average: 3.22877e-05
ExecutionTime = 29.59 s  ClockTime = 30 s

Time = 0.50088

Courant Number mean: 0.0823211 max: 0.547863
smoothSolver:  Solving for Ux, Initial residual = 0.000104879, Final residual = 2.60588e-06, No Iterations 1
smoothSolver:  Solving for Uy, Initial residual = 0.00100313, Final residual = 8.87091e-07, No Iterations 2
GAMG:  Solving for p, Initial residual = 0.00937335, Final residual = 0.000729739, No Iterations 3
time step continuity errors : sum local = 2.74796e-09, global = -3.17077e-11, cumulative = -2.74127e-09
GAMG:  Solving for p, Initial residual = 0.00134644, Final residual = 6.63151e-07, No Iterations 6
time step continuity errors : sum local = 2.49787e-12, global = -5.5531e-13, cumulative = -2.74182e-09
smoothSolver:  Solving for k, Initial residual = 0.000960138, Final residual = 7.81954e-07, No Iterations 2
bounding k, min: 0 max: 0.00139798 average: 3.22904e-05
ExecutionTime = 29.95 s  ClockTime = 30 s

Time = 0.50089

Courant Number mean: 0.082322 max: 0.54767
[...]

Courant Number mean: 0.0824416 max: 0.415336
smoothSolver:  Solving for Ux, Initial residual = 0.000108043, Final residual = 2.76538e-06, No Iterations 1
smoothSolver:  Solving for Uy, Initial residual = 0.00105762, Final residual = 9.88384e-07, No Iterations 2
GAMG:  Solving for p, Initial residual = 0.00928256, Final residual = 0.000769029, No Iterations 3
time step continuity errors : sum local = 3.49002e-09, global = 7.69033e-11, cumulative = -3.59186e-10
GAMG:  Solving for p, Initial residual = 0.00126906, Final residual = 7.92684e-07, No Iterations 6
time step continuity errors : sum local = 3.59804e-12, global = 4.70394e-13, cumulative = -3.58716e-10
smoothSolver:  Solving for k, Initial residual = 0.00105089, Final residual = 1.03902e-06, No Iterations 2
bounding k, min: 0 max: 0.000960125 average: 3.25808e-05
ExecutionTime = 114.97 s  ClockTime = 117 s

Time = 0.50336

Courant Number mean: 0.0824416 max: 0.414134
smoothSolver:  Solving for Ux, Initial residual = 0.000108004, Final residual = 2.76355e-06, No Iterations 1
smoothSolver:  Solving for Uy, Initial residual = 0.00105748, Final residual = 9.87271e-07, No Iterations 2
GAMG:  Solving for p, Initial residual = 0.00925278, Final residual = 0.000767605, No Iterations 3
time step continuity errors : sum local = 3.48426e-09, global = 8.39257e-11, cumulative = -2.7479e-10
GAMG:  Solving for p, Initial residual = 0.00127565, Final residual = 5.73633e-07, No Iterations 7
time step continuity errors : sum local = 2.60385e-12, global = -4.37938e-13, cumulative = -2.75228e-10
smoothSolver:  Solving for k, Initial residual = 0.00105057, Final residual = 1.03827e-06, No Iterations 2
bounding k, min: 0 max: 0.000956735 average: 3.25787e-05
ExecutionTime = 115.3 s  ClockTime = 117 s

Time = 0.50337

Courant Number mean: 0.0824414 max: 0.415703
smoothSolver:  Solving for Ux, Initial residual = 0.000107958, Final residual = 2.76152e-06, No Iterations 1
smoothSolver:  Solving for Uy, Initial residual = 0.00105734, Final residual = 9.86474e-07, No Iterations 2
GAMG:  Solving for p, Initial residual = 0.00897861, Final residual = 0.000753079, No Iterations 3
time step continuity errors : sum local = 3.42014e-09, global = 7.40018e-11, cumulative = -2.01226e-10
GAMG:  Solving for p, Initial residual = 0.0012527, Final residual = 7.89732e-07, No Iterations 6
time step continuity errors : sum local = 3.58662e-12, global = 4.63089e-13, cumulative = -2.00763e-10
smoothSolver:  Solving for k, Initial residual = 0.00105026, Final residual = 1.03241e-06, No Iterations 2
bounding k, min: 0 max: 0.000955457 average: 3.25766e-05
ExecutionTime = 115.59 s  ClockTime = 118 s

Time = 0.50338

Courant Number mean: 0.082441 max: 0.416962
smoothSolver:  Solving for Ux, Initial residual = 0.000107898, Final residual = 2.75921e-06, No Iterations 1
smoothSolver:  Solving for Uy, Initial residual = 0.001057, Final residual = 9.86196e-07, No Iterations 2
GAMG:  Solving for p, Initial residual = 0.0089587, Final residual = 0.000753046, No Iterations 3
time step continuity errors : sum local = 3.42032e-09, global = 7.34924e-11, cumulative = -1.27271e-10
GAMG:  Solving for p, Initial residual = 0.00125645, Final residual = 7.40591e-07, No Iterations 6
time step continuity errors : sum local = 3.36413e-12, global = 4.56314e-13, cumulative = -1.26814e-10
smoothSolver:  Solving for k, Initial residual = 0.00104992, Final residual = 1.04281e-06, No Iterations 2
bounding k, min: 0 max: 0.000954843 average: 3.25744e-05
ExecutionTime = 115.87 s  ClockTime = 118 s

Time = 0.50339

Courant Number mean: 0.0824405 max: 0.417909
smoothSolver:  Solving for Ux, Initial residual = 0.000107849, Final residual = 2.75665e-06, No Iterations 1
smoothSolver:  Solving for Uy, Initial residual = 0.00105676, Final residual = 9.88736e-07, No Iterations 2
GAMG:  Solving for p, Initial residual = 0.00940992, Final residual = 0.000749086, No Iterations 3
time step continuity errors : sum local = 3.40268e-09, global = 7.0902e-11, cumulative = -5.59125e-11
GAMG:  Solving for p, Initial residual = 0.00125743, Final residual = 7.54456e-07, No Iterations 6
time step continuity errors : sum local = 3.42687e-12, global = 4.53685e-13, cumulative = -5.54588e-11
smoothSolver:  Solving for k, Initial residual = 0.00104961, Final residual = 1.04019e-06, No Iterations 2
bounding k, min: 0 max: 0.000954107 average: 3.25723e-05
ExecutionTime = 116.25 s  ClockTime = 118 s

Time = 0.5034

Courant Number mean: 0.08244 max: 0.418547
smoothSolver:  Solving for Ux, Initial residual = 0.000107819, Final residual = 2.75461e-06, No Iterations 1
smoothSolver:  Solving for Uy, Initial residual = 0.00105637, Final residual = 9.91366e-07, No Iterations 2
GAMG:  Solving for p, Initial residual = 0.00959842, Final residual = 0.000765977, No Iterations 3
time step continuity errors : sum local = 3.47895e-09, global = 6.84451e-11, cumulative = 1.29864e-11
GAMG:  Solving for p, Initial residual = 0.00127289, Final residual = 8.11477e-07, No Iterations 6
time step continuity errors : sum local = 3.68489e-12, global = 5.91206e-13, cumulative = 1.35776e-11
smoothSolver:  Solving for k, Initial residual = 0.00104919, Final residual = 1.03478e-06, No Iterations 2
bounding k, min: 0 max: 0.000953255 average: 3.25701e-05
ExecutionTime = 116.62 s  ClockTime = 119 s

Time = 0.50341

Courant Number mean: 0.0824395 max: 0.418877
smoothSolver:  Solving for Ux, Initial residual = 0.000107796, Final residual = 2.7543e-06, No Iterations 1
smoothSolver:  Solving for Uy, Initial residual = 0.00105664, Final residual = 9.93727e-07, No Iterations 2
GAMG:  Solving for p, Initial residual = 0.00914944, Final residual = 0.000756222, No Iterations 3
time step continuity errors : sum local = 3.4347e-09, global = 6.52865e-11, cumulative = 7.8864e-11
GAMG:  Solving for p, Initial residual = 0.00125033, Final residual = 7.41227e-07, No Iterations 6
time step continuity errors : sum local = 3.3666e-12, global = 4.06068e-13, cumulative = 7.92701e-11
smoothSolver:  Solving for k, Initial residual = 0.00104876, Final residual = 1.03168e-06, No Iterations 2
bounding k, min: 0 max: 0.000952282 average: 3.25679e-05
ExecutionTime = 116.94 s  ClockTime = 119 s

Time = 0.50342

Courant Number mean: 0.082439 max: 0.418903
smoothSolver:  Solving for Ux, Initial residual = 0.000107796, Final residual = 2.75446e-06, No Iterations 1
smoothSolver:  Solving for Uy, Initial residual = 0.0010572, Final residual = 9.95096e-07, No Iterations 2
GAMG:  Solving for p, Initial residual = 0.00957307, Final residual = 0.000758493, No Iterations 3
time step continuity errors : sum local = 3.44574e-09, global = 6.218e-11, cumulative = 1.4145e-10
GAMG:  Solving for p, Initial residual = 0.00126267, Final residual = 8.23135e-07, No Iterations 6
time step continuity errors : sum local = 3.74015e-12, global = -1.06844e-13, cumulative = 1.41343e-10
smoothSolver:  Solving for k, Initial residual = 0.00104852, Final residual = 1.02956e-06, No Iterations 2
bounding k, min: 0 max: 0.000951183 average: 3.25658e-05
ExecutionTime = 117.24 s  ClockTime = 119 s

Time = 0.50343

Courant Number mean: 0.0824386 max: 0.418628
smoothSolver:  Solving for Ux, Initial residual = 0.000107793, Final residual = 2.75383e-06, No Iterations 1
smoothSolver:  Solving for Uy, Initial residual = 0.00105779, Final residual = 9.95405e-07, No Iterations 2
GAMG:  Solving for p, Initial residual = 0.00988788, Final residual = 0.000755444, No Iterations 3
time step continuity errors : sum local = 3.43189e-09, global = 6.42251e-11, cumulative = 2.05568e-10
GAMG:  Solving for p, Initial residual = 0.00126819, Final residual = 9.2416e-07, No Iterations 6
time step continuity errors : sum local = 4.19807e-12, global = 9.06495e-13, cumulative = 2.06475e-10
smoothSolver:  Solving for k, Initial residual = 0.00104839, Final residual = 1.03211e-06, No Iterations 2
bounding k, min: 0 max: 0.00094995 average: 3.25635e-05
ExecutionTime = 117.59 s  ClockTime = 120 s

Time = 0.50344

Courant Number mean: 0.0824384 max: 0.418057
smoothSolver:  Solving for Ux, Initial residual = 0.000107793, Final residual = 2.75389e-06, No Iterations 1
smoothSolver:  Solving for Uy, Initial residual = 0.00105841, Final residual = 9.94533e-07, No Iterations 2
GAMG:  Solving for p, Initial residual = 0.00978388, Final residual = 0.000765049, No Iterations 3
time step continuity errors : sum local = 3.47691e-09, global = 6.45507e-11, cumulative = 2.71026e-10
GAMG:  Solving for p, Initial residual = 0.00128749, Final residual = 5.4655e-07, No Iterations 7
time step continuity errors : sum local = 2.48417e-12, global = 2.62396e-13, cumulative = 2.71288e-10
smoothSolver:  Solving for k, Initial residual = 0.00104825, Final residual = 1.03205e-06, No Iterations 2
bounding k, min: 0 max: 0.000948575 average: 3.25613e-05
ExecutionTime = 117.96 s  ClockTime = 120 s

Time = 0.50345

Courant Number mean: 0.0824388 max: 0.417197
smoothSolver:  Solving for Ux, Initial residual = 0.000107812, Final residual = 2.75425e-06, No Iterations 1
smoothSolver:  Solving for Uy, Initial residual = 0.00105905, Final residual = 9.92702e-07, No Iterations 2
GAMG:  Solving for p, Initial residual = 0.0101121, Final residual = 0.000779573, No Iterations 3
time step continuity errors : sum local = 3.5453e-09, global = 6.07442e-11, cumulative = 3.32032e-10
GAMG:  Solving for p, Initial residual = 0.00131332, Final residual = 6.57608e-07, No Iterations 7
time step continuity errors : sum local = 2.99016e-12, global = 4.4154e-13, cumulative = 3.32474e-10
smoothSolver:  Solving for k, Initial residual = 0.00104807, Final residual = 1.03535e-06, No Iterations 2
bounding k, min: 0 max: 0.00094705 average: 3.25591e-05
ExecutionTime = 118.31 s  ClockTime = 120 s

Time = 0.50346

Courant Number mean: 0.0824391 max: 0.416053
smoothSolver:  Solving for Ux, Initial residual = 0.000107731, Final residual = 2.75137e-06, No Iterations 1
smoothSolver:  Solving for Uy, Initial residual = 0.00105912, Final residual = 9.91117e-07, No Iterations 2
GAMG:  Solving for p, Initial residual = 0.00986387, Final residual = 0.000757774, No Iterations 3
time step continuity errors : sum local = 3.44364e-09, global = 5.66436e-11, cumulative = 3.89117e-10
GAMG:  Solving for p, Initial residual = 0.0012719, Final residual = 5.14497e-07, No Iterations 7
time step continuity errors : sum local = 2.33798e-12, global = -6.87009e-13, cumulative = 3.8843e-10
smoothSolver:  Solving for k, Initial residual = 0.00104783, Final residual = 1.03741e-06, No Iterations 2
bounding k, min: 0 max: 0.000945369 average: 3.25569e-05
ExecutionTime = 118.66 s  ClockTime = 121 s

Time = 0.50347

Courant Number mean: 0.0824393 max: 0.414633
smoothSolver:  Solving for Ux, Initial residual = 0.000107665, Final residual = 2.7487e-06, No Iterations 1
smoothSolver:  Solving for Uy, Initial residual = 0.00105932, Final residual = 9.90462e-07, No Iterations 2
GAMG:  Solving for p, Initial residual = 0.00969521, Final residual = 0.000760214, No Iterations 3
time step continuity errors : sum local = 3.45267e-09, global = 5.25772e-11, cumulative = 4.41008e-10
GAMG:  Solving for p, Initial residual = 0.00127767, Final residual = 6.99011e-07, No Iterations 6
time step continuity errors : sum local = 3.17395e-12, global = 3.54629e-13, cumulative = 4.41362e-10
smoothSolver:  Solving for k, Initial residual = 0.00104771, Final residual = 1.03381e-06, No Iterations 2
bounding k, min: 0 max: 0.000943523 average: 3.25547e-05
ExecutionTime = 119.02 s  ClockTime = 121 s

Time = 0.50348

Courant Number mean: 0.0824393 max: 0.412946
smoothSolver:  Solving for Ux, Initial residual = 0.000107619, Final residual = 2.74663e-06, No Iterations 1
smoothSolver:  Solving for Uy, Initial residual = 0.00105932, Final residual = 9.89308e-07, No Iterations 2
GAMG:  Solving for p, Initial residual = 0.00972078, Final residual = 0.000733221, No Iterations 3
time step continuity errors : sum local = 3.32934e-09, global = 5.3883e-11, cumulative = 4.95245e-10
GAMG:  Solving for p, Initial residual = 0.00125842, Final residual = 6.94599e-07, No Iterations 6
time step continuity errors : sum local = 3.15416e-12, global = -1.79521e-13, cumulative = 4.95066e-10
smoothSolver:  Solving for k, Initial residual = 0.00104752, Final residual = 1.02777e-06, No Iterations 2
bounding k, min: 0 max: 0.000941504 average: 3.25524e-05
ExecutionTime = 119.33 s  ClockTime = 121 s

Time = 0.50349

Courant Number mean: 0.0824393 max: 0.411002
smoothSolver:  Solving for Ux, Initial residual = 0.00010755, Final residual = 2.74352e-06, No Iterations 1
smoothSolver:  Solving for Uy, Initial residual = 0.00105922, Final residual = 9.88536e-07, No Iterations 2
GAMG:  Solving for p, Initial residual = 0.00951183, Final residual = 0.000772847, No Iterations 3
time step continuity errors : sum local = 3.50898e-09, global = 5.24349e-11, cumulative = 5.47501e-10
GAMG:  Solving for p, Initial residual = 0.00126986, Final residual = 8.90571e-07, No Iterations 6
time step continuity errors : sum local = 4.04297e-12, global = -5.03913e-14, cumulative = 5.4745e-10
smoothSolver:  Solving for k, Initial residual = 0.00104725, Final residual = 1.02692e-06, No Iterations 2
bounding k, min: 0 max: 0.000939306 average: 3.25502e-05
ExecutionTime = 119.66 s  ClockTime = 122 s

Time = 0.5035

Courant Number mean: 0.0824391 max: 0.408811
smoothSolver:  Solving for Ux, Initial residual = 0.000107487, Final residual = 2.74166e-06, No Iterations 1
smoothSolver:  Solving for Uy, Initial residual = 0.00105898, Final residual = 9.87986e-07, No Iterations 2
GAMG:  Solving for p, Initial residual = 0.00923501, Final residual = 0.000763736, No Iterations 3
time step continuity errors : sum local = 3.46624e-09, global = 5.18438e-11, cumulative = 5.99294e-10
GAMG:  Solving for p, Initial residual = 0.001261, Final residual = 7.0138e-07, No Iterations 6
time step continuity errors : sum local = 3.18296e-12, global = -2.27877e-13, cumulative = 5.99066e-10
smoothSolver:  Solving for k, Initial residual = 0.00104683, Final residual = 1.02869e-06, No Iterations 2
bounding k, min: 0 max: 0.000936921 average: 3.25479e-05
ExecutionTime = 119.97 s  ClockTime = 122 s

Time = 0.50351

Courant Number mean: 0.0824387 max: 0.409757
smoothSolver:  Solving for Ux, Initial residual = 0.000107442, Final residual = 2.73982e-06, No Iterations 1
smoothSolver:  Solving for Uy, Initial residual = 0.00105871, Final residual = 9.88258e-07, No Iterations 2
GAMG:  Solving for p, Initial residual = 0.00927053, Final residual = 0.000755741, No Iterations 3
time step continuity errors : sum local = 3.42979e-09, global = 4.81502e-11, cumulative = 6.47216e-10
GAMG:  Solving for p, Initial residual = 0.0012518, Final residual = 7.15908e-07, No Iterations 6
time step continuity errors : sum local = 3.24923e-12, global = -2.11072e-13, cumulative = 6.47005e-10
smoothSolver:  Solving for k, Initial residual = 0.00104641, Final residual = 1.02735e-06, No Iterations 2
bounding k, min: 0 max: 0.000934343 average: 3.25456e-05
ExecutionTime = 120.29 s  ClockTime = 122 s

Time = 0.50352

Courant Number mean: 0.0824383 max: 0.411008
smoothSolver:  Solving for Ux, Initial residual = 0.000107412, Final residual = 2.73873e-06, No Iterations 1
smoothSolver:  Solving for Uy, Initial residual = 0.00105821, Final residual = 9.90661e-07, No Iterations 2
GAMG:  Solving for p, Initial residual = 0.00948114, Final residual = 0.000770665, No Iterations 3
time step continuity errors : sum local = 3.49827e-09, global = 4.8716e-11, cumulative = 6.95721e-10
GAMG:  Solving for p, Initial residual = 0.00126295, Final residual = 7.24013e-07, No Iterations 6
time step continuity errors : sum local = 3.28714e-12, global = -2.46741e-13, cumulative = 6.95475e-10
smoothSolver:  Solving for k, Initial residual = 0.001046, Final residual = 1.02554e-06, No Iterations 2
bounding k, min: 0 max: 0.000931564 average: 3.25434e-05
ExecutionTime = 120.6 s  ClockTime = 123 s

Time = 0.50353

Courant Number mean: 0.0824378 max: 0.411965
smoothSolver:  Solving for Ux, Initial residual = 0.000107387, Final residual = 2.73824e-06, No Iterations 1
smoothSolver:  Solving for Uy, Initial residual = 0.00105824, Final residual = 9.93218e-07, No Iterations 2
GAMG:  Solving for p, Initial residual = 0.0100625, Final residual = 0.000763415, No Iterations 3
time step continuity errors : sum local = 3.46619e-09, global = 4.50476e-11, cumulative = 7.40522e-10
GAMG:  Solving for p, Initial residual = 0.00126151, Final residual = 5.11727e-07, No Iterations 7
time step continuity errors : sum local = 2.3236e-12, global = -6.9001e-13, cumulative = 7.39832e-10
smoothSolver:  Solving for k, Initial residual = 0.00104563, Final residual = 1.03185e-06, No Iterations 2
bounding k, min: 0 max: 0.00092858 average: 3.25411e-05
ExecutionTime = 120.91 s  ClockTime = 123 s

Time = 0.50354

Courant Number mean: 0.0824372 max: 0.412629
smoothSolver:  Solving for Ux, Initial residual = 0.000107358, Final residual = 2.73748e-06, No Iterations 1
smoothSolver:  Solving for Uy, Initial residual = 0.00105864, Final residual = 9.94691e-07, No Iterations 2
GAMG:  Solving for p, Initial residual = 0.00935045, Final residual = 0.000735605, No Iterations 3
time step continuity errors : sum local = 3.33937e-09, global = 4.44179e-11, cumulative = 7.8425e-10
GAMG:  Solving for p, Initial residual = 0.00123368, Final residual = 7.86781e-07, No Iterations 6
time step continuity errors : sum local = 3.57184e-12, global = -1.63851e-13, cumulative = 7.84086e-10
smoothSolver:  Solving for k, Initial residual = 0.00104532, Final residual = 1.02213e-06, No Iterations 2
bounding k, min: 0 max: 0.000925382 average: 3.25388e-05
ExecutionTime = 121.22 s  ClockTime = 123 s

Time = 0.50355

Courant Number mean: 0.0824367 max: 0.413002
smoothSolver:  Solving for Ux, Initial residual = 0.000107321, Final residual = 2.73592e-06, No Iterations 1
smoothSolver:  Solving for Uy, Initial residual = 0.00105931, Final residual = 9.95439e-07, No Iterations 2
GAMG:  Solving for p, Initial residual = 0.00965079, Final residual = 0.000741407, No Iterations 3
time step continuity errors : sum local = 3.36555e-09, global = 4.33828e-11, cumulative = 8.27469e-10
GAMG:  Solving for p, Initial residual = 0.00123936, Final residual = 9.69298e-07, No Iterations 6
time step continuity errors : sum local = 4.40006e-12, global = 4.83552e-14, cumulative = 8.27517e-10
smoothSolver:  Solving for k, Initial residual = 0.00104523, Final residual = 1.01954e-06, No Iterations 2
bounding k, min: 0 max: 0.000924124 average: 3.25365e-05
ExecutionTime = 121.51 s  ClockTime = 124 s

Time = 0.50356

Courant Number mean: 0.0824363 max: 0.413086
smoothSolver:  Solving for Ux, Initial residual = 0.000107291, Final residual = 2.73507e-06, No Iterations 1
smoothSolver:  Solving for Uy, Initial residual = 0.0010599, Final residual = 9.94598e-07, No Iterations 2
GAMG:  Solving for p, Initial residual = 0.00997271, Final residual = 0.000730112, No Iterations 3
time step continuity errors : sum local = 3.31363e-09, global = 4.28819e-11, cumulative = 8.70399e-10
GAMG:  Solving for p, Initial residual = 0.00123103, Final residual = 6.08971e-07, No Iterations 6
time step continuity errors : sum local = 2.76403e-12, global = -2.98171e-13, cumulative = 8.70101e-10
smoothSolver:  Solving for k, Initial residual = 0.00104526, Final residual = 1.02341e-06, No Iterations 2
bounding k, min: 0 max: 0.000923501 average: 3.25342e-05
ExecutionTime = 121.81 s  ClockTime = 124 s

Time = 0.50357

Courant Number mean: 0.0824367 max: 0.412883
smoothSolver:  Solving for Ux, Initial residual = 0.000107273, Final residual = 2.73397e-06, No Iterations 1
smoothSolver:  Solving for Uy, Initial residual = 0.00106038, Final residual = 9.93177e-07, No Iterations 2
GAMG:  Solving for p, Initial residual = 0.00953635, Final residual = 0.000729984, No Iterations 3
time step continuity errors : sum local = 3.31232e-09, global = 4.24025e-11, cumulative = 9.12504e-10
